/*---------------------------------------------------------------------------*\
  =========                 |
  \\      /  F ield         | OpenFOAM: The Open Source CFD Toolbox
   \\    /   O peration     | Website:  https://openfoam.org
    \\  /    A nd           | Version:  6
     \\/     M anipulation  |
\*---------------------------------------------------------------------------*/
Build  : 6-fa1285188035
Exec   : interFoam -parallel
Date   : Feb 20 2020
Time   : 13:25:48
Host   : "josh-Latitude-E7470"
PID    : 18111
I/O    : uncollated
Case   : /home/josh/OpenFOAM/josh-6/run/meterIcfWedge/case
nProcs : 4
Slaves : 
3
(
"josh-Latitude-E7470.18112"
"josh-Latitude-E7470.18113"
"josh-Latitude-E7470.18114"
)

Pstream initialized with:
    floatTransfer      : 0
    nProcsSimpleSum    : 0
    commsType          : nonBlocking
    polling iterations : 0
sigFpe : Enabling floating point exception trapping (FOAM_SIGFPE).
fileModificationChecking : Monitoring run-time modified files using timeStampMaster (fileModificationSkew 10)
allowSystemOperations : Allowing user-supplied system call operations

// * * * * * * * * * * * * * * * * * * * * * * * * * * * * * * * * * * * * * //
Create time

Create mesh for time = 0

Selecting dynamicFvMesh staticFvMesh

PIMPLE: No convergence criteria found


PIMPLE: Operating solver in PISO mode

Reading field p_rgh

Reading field U

Reading/calculating face flux field phi

Reading transportProperties

Selecting incompressible transport model Newtonian
Selecting incompressible transport model Newtonian
Selecting turbulence model type laminar
Selecting laminar stress model Stokes

Reading g

Reading hRef
Calculating field g.h

No MRF models present

No finite volume options present
DICPCG:  Solving for pcorr, Initial residual = 1, Final residual = 8.21721e-06, No Iterations 160
time step continuity errors : sum local = 2.15784e-20, global = -7.1827e-22, cumulative = -7.1827e-22
Courant Number mean: 1.63111e-13 max: 2.06842e-10

Starting time loop

Courant Number mean: 1.63111e-13 max: 2.06842e-10
Interface Courant Number mean: 0 max: 0
deltaT = 1.2e-14
Time = 1.2e-14

smoothSolver:  Solving for alpha.water, Initial residual = 1.30278e-14, Final residual = 1.30278e-14, No Iterations 0
Phase-1 volume fraction = 0.0631537  Min(alpha.water) = 0  Max(alpha.water) = 1
MULES: Correcting alpha.water
MULES: Correcting alpha.water
Phase-1 volume fraction = 0.0631537  Min(alpha.water) = 0  Max(alpha.water) = 1
DICPCG:  Solving for p_rgh, Initial residual = 1, Final residual = 0.0409588, No Iterations 22
time step continuity errors : sum local = 1.2907e-16, global = 7.23206e-18, cumulative = 7.23134e-18
DICPCG:  Solving for p_rgh, Initial residual = 0.0218845, Final residual = 0.00105219, No Iterations 20
time step continuity errors : sum local = 8.78005e-18, global = 3.30103e-18, cumulative = 1.05324e-17
DICPCG:  Solving for p_rgh, Initial residual = 0.00188717, Final residual = 9.47013e-08, No Iterations 92
time step continuity errors : sum local = 8.06194e-22, global = 2.71654e-23, cumulative = 1.05324e-17
ExecutionTime = 0.45 s  ClockTime = 1 s

Courant Number mean: 1.96252e-13 max: 2.48211e-10
Interface Courant Number mean: 0 max: 0
deltaT = 1.44e-14
Time = 2.64e-14

smoothSolver:  Solving for alpha.water, Initial residual = 1.56322e-14, Final residual = 1.56322e-14, No Iterations 0
Phase-1 volume fraction = 0.0631537  Min(alpha.water) = 0  Max(alpha.water) = 1
MULES: Correcting alpha.water
MULES: Correcting alpha.water
Phase-1 volume fraction = 0.0631537  Min(alpha.water) = -1.74525e-52  Max(alpha.water) = 1
DICPCG:  Solving for p_rgh, Initial residual = 0.25648, Final residual = 0.0109462, No Iterations 22
time step continuity errors : sum local = 1.14315e-16, global = -6.1299e-18, cumulative = 4.4025e-18
DICPCG:  Solving for p_rgh, Initial residual = 0.0294668, Final residual = 0.00139955, No Iterations 20
time step continuity errors : sum local = 7.69534e-18, global = -2.87069e-18, cumulative = 1.5318e-18
DICPCG:  Solving for p_rgh, Initial residual = 0.00276057, Final residual = 9.62044e-08, No Iterations 94
time step continuity errors : sum local = 4.95356e-22, global = -2.25184e-23, cumulative = 1.53178e-18
ExecutionTime = 0.61 s  ClockTime = 1 s

Courant Number mean: 2.35817e-13 max: 2.97853e-10
Interface Courant Number mean: 0 max: 0
deltaT = 1.728e-14
Time = 4.368e-14

smoothSolver:  Solving for alpha.water, Initial residual = 1.87572e-14, Final residual = 1.87572e-14, No Iterations 0
Phase-1 volume fraction = 0.0631537  Min(alpha.water) = -1.74525e-52  Max(alpha.water) = 1
MULES: Correcting alpha.water
MULES: Correcting alpha.water
Phase-1 volume fraction = 0.0631537  Min(alpha.water) = -4.34811e-38  Max(alpha.water) = 1
DICPCG:  Solving for p_rgh, Initial residual = 0.255582, Final residual = 0.0107161, No Iterations 22
time step continuity errors : sum local = 6.61779e-17, global = -3.65667e-18, cumulative = -2.12489e-18
DICPCG:  Solving for p_rgh, Initial residual = 0.0280728, Final residual = 0.00136617, No Iterations 20
time step continuity errors : sum local = 4.45294e-18, global = -1.67013e-18, cumulative = -3.79502e-18
DICPCG:  Solving for p_rgh, Initial residual = 0.00261862, Final residual = 8.92877e-08, No Iterations 94
time step continuity errors : sum local = 2.72743e-22, global = -1.37218e-23, cumulative = -3.79503e-18
ExecutionTime = 0.78 s  ClockTime = 1 s

Courant Number mean: 2.83172e-13 max: 3.57423e-10
Interface Courant Number mean: 0 max: 0
deltaT = 2.0736e-14
Time = 6.4416e-14

smoothSolver:  Solving for alpha.water, Initial residual = 2.25044e-14, Final residual = 2.25044e-14, No Iterations 0
Phase-1 volume fraction = 0.0631537  Min(alpha.water) = -4.34811e-38  Max(alpha.water) = 1
MULES: Correcting alpha.water
MULES: Correcting alpha.water
Phase-1 volume fraction = 0.0631537  Min(alpha.water) = -4.34811e-38  Max(alpha.water) = 1
DICPCG:  Solving for p_rgh, Initial residual = 0.254735, Final residual = 0.0105396, No Iterations 22
time step continuity errors : sum local = 3.86627e-17, global = -2.18921e-18, cumulative = -5.98425e-18
DICPCG:  Solving for p_rgh, Initial residual = 0.0273614, Final residual = 0.00117456, No Iterations 21
time step continuity errors : sum local = 2.2791e-18, global = -8.97078e-19, cumulative = -6.88133e-18
DICPCG:  Solving for p_rgh, Initial residual = 0.00239609, Final residual = 9.39641e-08, No Iterations 94
time step continuity errors : sum local = 1.70697e-22, global = -6.47391e-24, cumulative = -6.88133e-18
ExecutionTime = 0.94 s  ClockTime = 1 s

Courant Number mean: 3.39923e-13 max: 4.28908e-10
Interface Courant Number mean: 0 max: 0
deltaT = 2.48832e-14
Time = 8.92992e-14

smoothSolver:  Solving for alpha.water, Initial residual = 2.70042e-14, Final residual = 2.70042e-14, No Iterations 0
Phase-1 volume fraction = 0.0631537  Min(alpha.water) = -4.34811e-38  Max(alpha.water) = 1
MULES: Correcting alpha.water
MULES: Correcting alpha.water
Phase-1 volume fraction = 0.0631537  Min(alpha.water) = -4.34811e-38  Max(alpha.water) = 1
DICPCG:  Solving for p_rgh, Initial residual = 0.253773, Final residual = 0.0101149, No Iterations 22
time step continuity errors : sum local = 2.211e-17, global = -1.29796e-18, cumulative = -8.17929e-18
DICPCG:  Solving for p_rgh, Initial residual = 0.0264726, Final residual = 0.00115078, No Iterations 21
time step continuity errors : sum local = 1.3301e-18, global = -5.22698e-19, cumulative = -8.70199e-18
DICPCG:  Solving for p_rgh, Initial residual = 0.00232437, Final residual = 9.25829e-08, No Iterations 94
time step continuity errors : sum local = 1.00299e-22, global = -4.2032e-24, cumulative = -8.70199e-18
ExecutionTime = 1.12 s  ClockTime = 2 s

Courant Number mean: 4.07979e-13 max: 5.14689e-10
Interface Courant Number mean: 0 max: 0
deltaT = 2.98598e-14
Time = 1.19159e-13

smoothSolver:  Solving for alpha.water, Initial residual = 3.24041e-14, Final residual = 3.24041e-14, No Iterations 0
Phase-1 volume fraction = 0.0631537  Min(alpha.water) = -4.34811e-38  Max(alpha.water) = 1
MULES: Correcting alpha.water
MULES: Correcting alpha.water
Phase-1 volume fraction = 0.0631537  Min(alpha.water) = -4.34811e-38  Max(alpha.water) = 1
DICPCG:  Solving for p_rgh, Initial residual = 0.252874, Final residual = 0.0126204, No Iterations 16
time step continuity errors : sum local = 1.64625e-17, global = -3.32854e-18, cumulative = -1.20305e-17
DICPCG:  Solving for p_rgh, Initial residual = 0.027061, Final residual = 0.00134554, No Iterations 22
time step continuity errors : sum local = 1.10513e-18, global = -3.39108e-19, cumulative = -1.23696e-17
DICPCG:  Solving for p_rgh, Initial residual = 0.00547502, Final residual = 8.80399e-08, No Iterations 99
time step continuity errors : sum local = 5.70708e-23, global = -2.99678e-24, cumulative = -1.23696e-17
ExecutionTime = 1.29 s  ClockTime = 2 s

Courant Number mean: 4.89618e-13 max: 6.17627e-10
Interface Courant Number mean: 0 max: 0
deltaT = 3.58318e-14
Time = 1.54991e-13

smoothSolver:  Solving for alpha.water, Initial residual = 3.88819e-14, Final residual = 3.88819e-14, No Iterations 0
Phase-1 volume fraction = 0.0631537  Min(alpha.water) = -4.34811e-38  Max(alpha.water) = 1
MULES: Correcting alpha.water
MULES: Correcting alpha.water
Phase-1 volume fraction = 0.0631537  Min(alpha.water) = -4.34811e-38  Max(alpha.water) = 1
DICPCG:  Solving for p_rgh, Initial residual = 0.25225, Final residual = 0.0109853, No Iterations 22
time step continuity errors : sum local = 8.55951e-18, global = -4.80081e-19, cumulative = -1.28497e-17
DICPCG:  Solving for p_rgh, Initial residual = 0.0277478, Final residual = 0.00136098, No Iterations 20
time step continuity errors : sum local = 5.62015e-19, global = -2.12732e-19, cumulative = -1.30625e-17
DICPCG:  Solving for p_rgh, Initial residual = 0.00251784, Final residual = 8.62885e-08, No Iterations 94
time step continuity errors : sum local = 3.3367e-23, global = -1.57751e-24, cumulative = -1.30625e-17
ExecutionTime = 1.45 s  ClockTime = 2 s

Courant Number mean: 5.87568e-13 max: 7.41153e-10
Interface Courant Number mean: 0 max: 0
deltaT = 4.29982e-14
Time = 1.97989e-13

smoothSolver:  Solving for alpha.water, Initial residual = 4.66566e-14, Final residual = 4.66566e-14, No Iterations 0
Phase-1 volume fraction = 0.0631537  Min(alpha.water) = -4.34811e-38  Max(alpha.water) = 1
MULES: Correcting alpha.water
MULES: Correcting alpha.water
Phase-1 volume fraction = 0.0631537  Min(alpha.water) = -4.34811e-38  Max(alpha.water) = 1
DICPCG:  Solving for p_rgh, Initial residual = 0.251445, Final residual = 0.0109607, No Iterations 22
time step continuity errors : sum local = 5.10009e-18, global = -2.88387e-19, cumulative = -1.33508e-17
DICPCG:  Solving for p_rgh, Initial residual = 0.0276712, Final residual = 0.00136642, No Iterations 20
time step continuity errors : sum local = 3.37042e-19, global = -1.27902e-19, cumulative = -1.34787e-17
DICPCG:  Solving for p_rgh, Initial residual = 0.00250427, Final residual = 8.71997e-08, No Iterations 94
time step continuity errors : sum local = 2.01517e-23, global = -9.83888e-25, cumulative = -1.34787e-17
ExecutionTime = 1.62 s  ClockTime = 2 s

Courant Number mean: 7.05098e-13 max: 8.89383e-10
Interface Courant Number mean: 0 max: 0
deltaT = 5.15978e-14
Time = 2.49587e-13

smoothSolver:  Solving for alpha.water, Initial residual = 5.59865e-14, Final residual = 5.59865e-14, No Iterations 0
Phase-1 volume fraction = 0.0631537  Min(alpha.water) = -4.34811e-38  Max(alpha.water) = 1
MULES: Correcting alpha.water
MULES: Correcting alpha.water
Phase-1 volume fraction = 0.0631537  Min(alpha.water) = -4.34811e-38  Max(alpha.water) = 1
DICPCG:  Solving for p_rgh, Initial residual = 0.250774, Final residual = 0.0108593, No Iterations 22
time step continuity errors : sum local = 3.02042e-18, global = -1.7373e-19, cumulative = -1.36525e-17
DICPCG:  Solving for p_rgh, Initial residual = 0.02748, Final residual = 0.00118043, No Iterations 21
time step continuity errors : sum local = 1.74031e-19, global = -6.89589e-20, cumulative = -1.37214e-17
DICPCG:  Solving for p_rgh, Initial residual = 0.0023297, Final residual = 9.13839e-08, No Iterations 94
time step continuity errors : sum local = 1.2608e-23, global = -4.81452e-25, cumulative = -1.37214e-17
ExecutionTime = 1.79 s  ClockTime = 2 s

Courant Number mean: 8.46128e-13 max: 1.06726e-09
Interface Courant Number mean: 0 max: 0
deltaT = 6.19174e-14
Time = 3.11504e-13

smoothSolver:  Solving for alpha.water, Initial residual = 6.71826e-14, Final residual = 6.71826e-14, No Iterations 0
Phase-1 volume fraction = 0.0631537  Min(alpha.water) = -4.34811e-38  Max(alpha.water) = 1
MULES: Correcting alpha.water
MULES: Correcting alpha.water
Phase-1 volume fraction = 0.0631537  Min(alpha.water) = -4.34811e-38  Max(alpha.water) = 1
DICPCG:  Solving for p_rgh, Initial residual = 0.250127, Final residual = 0.00958944, No Iterations 22
time step continuity errors : sum local = 1.595e-18, global = -1.00791e-19, cumulative = -1.38222e-17
DICPCG:  Solving for p_rgh, Initial residual = 0.0254634, Final residual = 0.0011329, No Iterations 21
time step continuity errors : sum local = 9.95746e-20, global = -3.93017e-20, cumulative = -1.38615e-17
DICPCG:  Solving for p_rgh, Initial residual = 0.00223085, Final residual = 9.4129e-08, No Iterations 94
time step continuity errors : sum local = 7.76491e-24, global = -3.34996e-25, cumulative = -1.38615e-17
ExecutionTime = 1.96 s  ClockTime = 2 s

Courant Number mean: 1.01536e-12 max: 1.28071e-09
Interface Courant Number mean: 0 max: 0
deltaT = 7.43008e-14
Time = 3.85805e-13

smoothSolver:  Solving for alpha.water, Initial residual = 8.06138e-14, Final residual = 8.06138e-14, No Iterations 0
Phase-1 volume fraction = 0.0631537  Min(alpha.water) = -4.34811e-38  Max(alpha.water) = 1
MULES: Correcting alpha.water
MULES: Correcting alpha.water
Phase-1 volume fraction = 0.0631537  Min(alpha.water) = -4.34811e-38  Max(alpha.water) = 1
DICPCG:  Solving for p_rgh, Initial residual = 0.249501, Final residual = 0.0099732, No Iterations 22
time step continuity errors : sum local = 9.92475e-19, global = -6.14804e-20, cumulative = -1.3923e-17
DICPCG:  Solving for p_rgh, Initial residual = 0.0260639, Final residual = 0.00113293, No Iterations 21
time step continuity errors : sum local = 5.96556e-20, global = -2.39966e-20, cumulative = -1.3947e-17
DICPCG:  Solving for p_rgh, Initial residual = 0.002244, Final residual = 9.44569e-08, No Iterations 94
time step continuity errors : sum local = 4.66329e-24, global = -1.9228e-25, cumulative = -1.3947e-17
ExecutionTime = 2.13 s  ClockTime = 3 s

Courant Number mean: 1.21843e-12 max: 1.53685e-09
Interface Courant Number mean: 0 max: 0
deltaT = 8.9161e-14
Time = 4.74966e-13

smoothSolver:  Solving for alpha.water, Initial residual = 9.67348e-14, Final residual = 9.67348e-14, No Iterations 0
Phase-1 volume fraction = 0.0631537  Min(alpha.water) = -4.34811e-38  Max(alpha.water) = 1
MULES: Correcting alpha.water
MULES: Correcting alpha.water
Phase-1 volume fraction = 0.0631537  Min(alpha.water) = -4.34811e-38  Max(alpha.water) = 1
DICPCG:  Solving for p_rgh, Initial residual = 0.248823, Final residual = 0.0106471, No Iterations 22
time step continuity errors : sum local = 6.34366e-19, global = -3.77484e-20, cumulative = -1.39848e-17
DICPCG:  Solving for p_rgh, Initial residual = 0.0271583, Final residual = 0.00135676, No Iterations 20
time step continuity errors : sum local = 4.2885e-20, global = -1.63071e-20, cumulative = -1.40011e-17
DICPCG:  Solving for p_rgh, Initial residual = 0.00247154, Final residual = 9.05586e-08, No Iterations 94
time step continuity errors : sum local = 2.68228e-24, global = -1.15452e-25, cumulative = -1.40011e-17
ExecutionTime = 2.31 s  ClockTime = 3 s

Courant Number mean: 1.46212e-12 max: 1.84422e-09
Interface Courant Number mean: 0 max: 0
deltaT = 1.06993e-13
Time = 5.81959e-13

smoothSolver:  Solving for alpha.water, Initial residual = 1.16081e-13, Final residual = 1.16081e-13, No Iterations 0
Phase-1 volume fraction = 0.0631537  Min(alpha.water) = -4.34811e-38  Max(alpha.water) = 1
MULES: Correcting alpha.water
MULES: Correcting alpha.water
Phase-1 volume fraction = 0.0631537  Min(alpha.water) = -4.34811e-38  Max(alpha.water) = 1
DICPCG:  Solving for p_rgh, Initial residual = 0.247962, Final residual = 0.0123593, No Iterations 16
time step continuity errors : sum local = 4.41443e-19, global = -9.06374e-20, cumulative = -1.40917e-17
DICPCG:  Solving for p_rgh, Initial residual = 0.0266321, Final residual = 0.00131034, No Iterations 22
time step continuity errors : sum local = 2.95724e-20, global = -9.1948e-21, cumulative = -1.41009e-17
DICPCG:  Solving for p_rgh, Initial residual = 0.005366, Final residual = 9.48936e-08, No Iterations 99
time step continuity errors : sum local = 1.68898e-24, global = -8.485e-26, cumulative = -1.41009e-17
ExecutionTime = 2.46 s  ClockTime = 3 s

Courant Number mean: 1.75455e-12 max: 2.21307e-09
Interface Courant Number mean: 0 max: 0
deltaT = 1.28392e-13
Time = 7.10351e-13

smoothSolver:  Solving for alpha.water, Initial residual = 1.39295e-13, Final residual = 1.39295e-13, No Iterations 0
Phase-1 volume fraction = 0.0631537  Min(alpha.water) = -4.34811e-38  Max(alpha.water) = 1
MULES: Correcting alpha.water
MULES: Correcting alpha.water
Phase-1 volume fraction = 0.0631537  Min(alpha.water) = -4.34811e-38  Max(alpha.water) = 1
DICPCG:  Solving for p_rgh, Initial residual = 0.246654, Final residual = 0.0107313, No Iterations 22
time step continuity errors : sum local = 2.30467e-19, global = -1.37873e-20, cumulative = -1.41147e-17
DICPCG:  Solving for p_rgh, Initial residual = 0.0272344, Final residual = 0.00135901, No Iterations 20
time step continuity errors : sum local = 1.55556e-20, global = -5.94251e-21, cumulative = -1.41206e-17
DICPCG:  Solving for p_rgh, Initial residual = 0.00247127, Final residual = 9.30915e-08, No Iterations 94
time step continuity errors : sum local = 9.97911e-25, global = -4.00156e-26, cumulative = -1.41206e-17
ExecutionTime = 2.64 s  ClockTime = 3 s

Courant Number mean: 2.10546e-12 max: 2.65568e-09
Interface Courant Number mean: 0 max: 0
deltaT = 1.5407e-13
Time = 8.64421e-13

smoothSolver:  Solving for alpha.water, Initial residual = 1.6715e-13, Final residual = 1.6715e-13, No Iterations 0
Phase-1 volume fraction = 0.0631537  Min(alpha.water) = -4.34811e-38  Max(alpha.water) = 1
MULES: Correcting alpha.water
MULES: Correcting alpha.water
Phase-1 volume fraction = 0.0631537  Min(alpha.water) = -4.34811e-38  Max(alpha.water) = 1
DICPCG:  Solving for p_rgh, Initial residual = 0.243813, Final residual = 0.0106884, No Iterations 22
time step continuity errors : sum local = 1.38714e-19, global = -8.32884e-21, cumulative = -1.41289e-17
DICPCG:  Solving for p_rgh, Initial residual = 0.0269537, Final residual = 0.00116985, No Iterations 21
time step continuity errors : sum local = 8.14909e-21, global = -3.26711e-21, cumulative = -1.41322e-17
DICPCG:  Solving for p_rgh, Initial residual = 0.00227887, Final residual = 9.5534e-08, No Iterations 94
time step continuity errors : sum local = 6.22858e-25, global = -2.2756e-26, cumulative = -1.41322e-17
ExecutionTime = 2.8 s  ClockTime = 3 s

Courant Number mean: 2.52655e-12 max: 3.18682e-09
Interface Courant Number mean: 0 max: 0
deltaT = 1.84884e-13
Time = 1.04931e-12

smoothSolver:  Solving for alpha.water, Initial residual = 2.00578e-13, Final residual = 2.00578e-13, No Iterations 0
Phase-1 volume fraction = 0.0631537  Min(alpha.water) = -4.34811e-38  Max(alpha.water) = 1
MULES: Correcting alpha.water
MULES: Correcting alpha.water
Phase-1 volume fraction = 0.0631537  Min(alpha.water) = -4.34811e-38  Max(alpha.water) = 1
DICPCG:  Solving for p_rgh, Initial residual = 0.237996, Final residual = 0.0118848, No Iterations 16
time step continuity errors : sum local = 9.44909e-20, global = -1.94355e-20, cumulative = -1.41517e-17
DICPCG:  Solving for p_rgh, Initial residual = 0.0252841, Final residual = 0.00123232, No Iterations 22
time step continuity errors : sum local = 6.32134e-21, global = -1.99977e-21, cumulative = -1.41537e-17
DICPCG:  Solving for p_rgh, Initial residual = 0.00501585, Final residual = 9.15981e-08, No Iterations 99
time step continuity errors : sum local = 3.72972e-25, global = -1.73122e-26, cumulative = -1.41537e-17
ExecutionTime = 2.96 s  ClockTime = 3 s

Courant Number mean: 3.03186e-12 max: 3.82418e-09
Interface Courant Number mean: 0 max: 0
deltaT = 2.21861e-13
Time = 1.27117e-12

smoothSolver:  Solving for alpha.water, Initial residual = 2.40692e-13, Final residual = 2.40692e-13, No Iterations 0
Phase-1 volume fraction = 0.0631537  Min(alpha.water) = -4.34811e-38  Max(alpha.water) = 1
MULES: Correcting alpha.water
MULES: Correcting alpha.water
Phase-1 volume fraction = 0.0631537  Min(alpha.water) = -4.34811e-38  Max(alpha.water) = 1
DICPCG:  Solving for p_rgh, Initial residual = 0.225525, Final residual = 0.00993945, No Iterations 22
time step continuity errors : sum local = 4.99379e-20, global = -3.04349e-21, cumulative = -1.41567e-17
DICPCG:  Solving for p_rgh, Initial residual = 0.0239108, Final residual = 0.0010266, No Iterations 21
time step continuity errors : sum local = 2.91623e-21, global = -1.18756e-21, cumulative = -1.41579e-17
DICPCG:  Solving for p_rgh, Initial residual = 0.00201402, Final residual = 8.79644e-08, No Iterations 94
time step continuity errors : sum local = 2.34883e-25, global = -7.8306e-27, cumulative = -1.41579e-17
ExecutionTime = 3.13 s  ClockTime = 4 s

Courant Number mean: 3.63824e-12 max: 4.58902e-09
Interface Courant Number mean: 0 max: 0
deltaT = 2.66233e-13
Time = 1.5374e-12

smoothSolver:  Solving for alpha.water, Initial residual = 2.88829e-13, Final residual = 2.88829e-13, No Iterations 0
Phase-1 volume fraction = 0.0631537  Min(alpha.water) = -4.34811e-38  Max(alpha.water) = 1
MULES: Correcting alpha.water
MULES: Correcting alpha.water
Phase-1 volume fraction = 0.0631537  Min(alpha.water) = -4.34811e-38  Max(alpha.water) = 1
DICPCG:  Solving for p_rgh, Initial residual = 0.199603, Final residual = 0.00989123, No Iterations 16
time step continuity errors : sum local = 3.35747e-20, global = -7.0009e-21, cumulative = -1.41649e-17
DICPCG:  Solving for p_rgh, Initial residual = 0.0194249, Final residual = 0.000939511, No Iterations 22
time step continuity errors : sum local = 2.25213e-21, global = -7.26853e-22, cumulative = -1.41656e-17
DICPCG:  Solving for p_rgh, Initial residual = 0.00372122, Final residual = 8.75538e-08, No Iterations 98
time step continuity errors : sum local = 1.72298e-25, global = -7.28866e-27, cumulative = -1.41656e-17
ExecutionTime = 3.39 s  ClockTime = 4 s

Courant Number mean: 4.36588e-12 max: 5.50683e-09
Interface Courant Number mean: 0 max: 0
deltaT = 3.1948e-13
Time = 1.85688e-12

smoothSolver:  Solving for alpha.water, Initial residual = 3.4659e-13, Final residual = 3.4659e-13, No Iterations 0
Phase-1 volume fraction = 0.0631537  Min(alpha.water) = -4.34811e-38  Max(alpha.water) = 1
MULES: Correcting alpha.water
MULES: Correcting alpha.water
Phase-1 volume fraction = 0.0631537  Min(alpha.water) = -4.34811e-38  Max(alpha.water) = 1
DICPCG:  Solving for p_rgh, Initial residual = 0.154405, Final residual = 0.00679673, No Iterations 22
time step continuity errors : sum local = 1.78717e-20, global = -1.10683e-21, cumulative = -1.41667e-17
DICPCG:  Solving for p_rgh, Initial residual = 0.0133036, Final residual = 0.000571754, No Iterations 21
time step continuity errors : sum local = 1.05377e-21, global = -4.32897e-22, cumulative = -1.41671e-17
DICPCG:  Solving for p_rgh, Initial residual = 0.00109837, Final residual = 8.34659e-08, No Iterations 91
time step continuity errors : sum local = 1.4775e-25, global = -5.16807e-27, cumulative = -1.41671e-17
ExecutionTime = 3.57 s  ClockTime = 4 s

Courant Number mean: 5.23906e-12 max: 6.60819e-09
Interface Courant Number mean: 0 max: 0
deltaT = 3.83376e-13
Time = 2.24026e-12

smoothSolver:  Solving for alpha.water, Initial residual = 4.15906e-13, Final residual = 4.15906e-13, No Iterations 0
Phase-1 volume fraction = 0.0631537  Min(alpha.water) = -4.34811e-38  Max(alpha.water) = 1
MULES: Correcting alpha.water
MULES: Correcting alpha.water
Phase-1 volume fraction = 0.0631537  Min(alpha.water) = -4.34811e-38  Max(alpha.water) = 1
DICPCG:  Solving for p_rgh, Initial residual = 0.0957869, Final residual = 0.00474921, No Iterations 16
time step continuity errors : sum local = 1.20452e-20, global = -2.51359e-21, cumulative = -1.41697e-17
DICPCG:  Solving for p_rgh, Initial residual = 0.00742391, Final residual = 0.000369019, No Iterations 22
time step continuity errors : sum local = 8.36429e-22, global = -2.63942e-22, cumulative = -1.41699e-17
DICPCG:  Solving for p_rgh, Initial residual = 0.00128598, Final residual = 9.92907e-08, No Iterations 90
time step continuity errors : sum local = 2.04653e-25, global = -1.40855e-26, cumulative = -1.41699e-17
ExecutionTime = 3.75 s  ClockTime = 4 s

Courant Number mean: 6.28687e-12 max: 7.92983e-09
Interface Courant Number mean: 0 max: 0
deltaT = 4.60051e-13
Time = 2.70031e-12

smoothSolver:  Solving for alpha.water, Initial residual = 4.99086e-13, Final residual = 4.99086e-13, No Iterations 0
Phase-1 volume fraction = 0.0631537  Min(alpha.water) = -4.34811e-38  Max(alpha.water) = 1
MULES: Correcting alpha.water
MULES: Correcting alpha.water
Phase-1 volume fraction = 0.0631537  Min(alpha.water) = -4.34811e-38  Max(alpha.water) = 1
DICPCG:  Solving for p_rgh, Initial residual = 0.047643, Final residual = 0.00234704, No Iterations 16
time step continuity errors : sum local = 7.17648e-21, global = -1.51102e-21, cumulative = -1.41714e-17
DICPCG:  Solving for p_rgh, Initial residual = 0.00336919, Final residual = 0.000168279, No Iterations 22
time step continuity errors : sum local = 5.03698e-22, global = -1.59783e-22, cumulative = -1.41716e-17
DICPCG:  Solving for p_rgh, Initial residual = 0.000555458, Final residual = 9.36895e-08, No Iterations 82
time step continuity errors : sum local = 2.68286e-25, global = -7.60588e-27, cumulative = -1.41716e-17
ExecutionTime = 3.93 s  ClockTime = 5 s

Courant Number mean: 7.54425e-12 max: 9.5158e-09
Interface Courant Number mean: 0 max: 0
deltaT = 5.52061e-13
Time = 3.25237e-12

smoothSolver:  Solving for alpha.water, Initial residual = 5.98902e-13, Final residual = 5.98902e-13, No Iterations 0
Phase-1 volume fraction = 0.0631537  Min(alpha.water) = -4.34811e-38  Max(alpha.water) = 1
MULES: Correcting alpha.water
MULES: Correcting alpha.water
Phase-1 volume fraction = 0.0631537  Min(alpha.water) = -4.34811e-38  Max(alpha.water) = 1
DICPCG:  Solving for p_rgh, Initial residual = 0.02082, Final residual = 0.00090973, No Iterations 22
time step continuity errors : sum local = 3.81484e-21, global = -2.44334e-22, cumulative = -1.41718e-17
DICPCG:  Solving for p_rgh, Initial residual = 0.00129296, Final residual = 5.70738e-05, No Iterations 21
time step continuity errors : sum local = 2.34752e-22, global = -9.74168e-23, cumulative = -1.41719e-17
DICPCG:  Solving for p_rgh, Initial residual = 0.00010459, Final residual = 9.06912e-08, No Iterations 68
time step continuity errors : sum local = 3.71332e-25, global = -3.17059e-26, cumulative = -1.41719e-17
ExecutionTime = 4.11 s  ClockTime = 5 s

Courant Number mean: 9.0531e-12 max: 1.1419e-08
Interface Courant Number mean: 0 max: 0
deltaT = 6.62474e-13
Time = 3.91484e-12

smoothSolver:  Solving for alpha.water, Initial residual = 7.18678e-13, Final residual = 7.18678e-13, No Iterations 0
Phase-1 volume fraction = 0.0631537  Min(alpha.water) = -4.34811e-38  Max(alpha.water) = 1
MULES: Correcting alpha.water
MULES: Correcting alpha.water
Phase-1 volume fraction = 0.0631537  Min(alpha.water) = -4.34811e-38  Max(alpha.water) = 1
DICPCG:  Solving for p_rgh, Initial residual = 0.00880345, Final residual = 0.000434346, No Iterations 16
time step continuity errors : sum local = 2.58021e-21, global = -5.44466e-22, cumulative = -1.41725e-17
DICPCG:  Solving for p_rgh, Initial residual = 0.000616976, Final residual = 3.07335e-05, No Iterations 22
time step continuity errors : sum local = 1.82253e-22, global = -5.80762e-23, cumulative = -1.41725e-17
DICPCG:  Solving for p_rgh, Initial residual = 9.74539e-05, Final residual = 9.69454e-08, No Iterations 64
time step continuity errors : sum local = 5.70526e-25, global = -6.33357e-26, cumulative = -1.41725e-17
ExecutionTime = 4.29 s  ClockTime = 5 s

Courant Number mean: 1.08637e-11 max: 1.37027e-08
Interface Courant Number mean: 0 max: 0
deltaT = 7.94968e-13
Time = 4.70981e-12

smoothSolver:  Solving for alpha.water, Initial residual = 8.62411e-13, Final residual = 8.62411e-13, No Iterations 0
Phase-1 volume fraction = 0.0631537  Min(alpha.water) = -4.34811e-38  Max(alpha.water) = 1
MULES: Correcting alpha.water
MULES: Correcting alpha.water
Phase-1 volume fraction = 0.0631537  Min(alpha.water) = -4.34811e-38  Max(alpha.water) = 1
DICPCG:  Solving for p_rgh, Initial residual = 0.00369325, Final residual = 0.000182014, No Iterations 16
time step continuity errors : sum local = 1.547e-21, global = -3.28505e-22, cumulative = -1.41729e-17
DICPCG:  Solving for p_rgh, Initial residual = 0.000259922, Final residual = 1.28583e-05, No Iterations 22
time step continuity errors : sum local = 1.09209e-22, global = -3.55806e-23, cumulative = -1.41729e-17
DICPCG:  Solving for p_rgh, Initial residual = 4.06978e-05, Final residual = 9.72867e-08, No Iterations 57
time step continuity errors : sum local = 8.23672e-25, global = -7.82864e-26, cumulative = -1.41729e-17
ExecutionTime = 4.43 s  ClockTime = 5 s

Courant Number mean: 1.30365e-11 max: 1.64433e-08
Interface Courant Number mean: 0 max: 0
deltaT = 9.53962e-13
Time = 5.66377e-12

smoothSolver:  Solving for alpha.water, Initial residual = 1.03489e-12, Final residual = 1.03489e-12, No Iterations 0
Phase-1 volume fraction = 0.0631537  Min(alpha.water) = -4.34811e-38  Max(alpha.water) = 1
MULES: Correcting alpha.water
MULES: Correcting alpha.water
Phase-1 volume fraction = 0.0631537  Min(alpha.water) = -4.34811e-38  Max(alpha.water) = 1
DICPCG:  Solving for p_rgh, Initial residual = 0.00154285, Final residual = 7.69282e-05, No Iterations 16
time step continuity errors : sum local = 9.38995e-22, global = -1.9824e-22, cumulative = -1.41731e-17
DICPCG:  Solving for p_rgh, Initial residual = 0.000110021, Final residual = 4.64363e-06, No Iterations 23
time step continuity errors : sum local = 5.66639e-23, global = -2.00639e-23, cumulative = -1.41731e-17
DICPCG:  Solving for p_rgh, Initial residual = 1.69311e-05, Final residual = 9.50864e-08, No Iterations 48
time step continuity errors : sum local = 1.15882e-24, global = -8.13475e-26, cumulative = -1.41731e-17
ExecutionTime = 4.57 s  ClockTime = 5 s

Courant Number mean: 1.56438e-11 max: 1.9732e-08
Interface Courant Number mean: 0 max: 0
deltaT = 1.14475e-12
Time = 6.80853e-12

smoothSolver:  Solving for alpha.water, Initial residual = 1.24187e-12, Final residual = 1.24187e-12, No Iterations 0
Phase-1 volume fraction = 0.0631537  Min(alpha.water) = -4.34811e-38  Max(alpha.water) = 1
MULES: Correcting alpha.water
MULES: Correcting alpha.water
Phase-1 volume fraction = 0.0631537  Min(alpha.water) = -4.34811e-38  Max(alpha.water) = 1
DICPCG:  Solving for p_rgh, Initial residual = 0.000643744, Final residual = 3.20795e-05, No Iterations 16
time step continuity errors : sum local = 5.63222e-22, global = -1.19341e-22, cumulative = -1.41732e-17
DICPCG:  Solving for p_rgh, Initial residual = 4.60995e-05, Final residual = 1.93334e-06, No Iterations 23
time step continuity errors : sum local = 3.39394e-23, global = -1.22889e-23, cumulative = -1.41733e-17
DICPCG:  Solving for p_rgh, Initial residual = 7.04793e-06, Final residual = 9.55834e-08, No Iterations 37
time step continuity errors : sum local = 1.6771e-24, global = -3.24575e-25, cumulative = -1.41733e-17
ExecutionTime = 4.71 s  ClockTime = 5 s

Courant Number mean: 1.87725e-11 max: 2.36783e-08
Interface Courant Number mean: 0 max: 0
deltaT = 1.37371e-12
Time = 8.18223e-12

smoothSolver:  Solving for alpha.water, Initial residual = 1.49024e-12, Final residual = 1.49024e-12, No Iterations 0
Phase-1 volume fraction = 0.0631537  Min(alpha.water) = -4.34811e-38  Max(alpha.water) = 1
MULES: Correcting alpha.water
MULES: Correcting alpha.water
Phase-1 volume fraction = 0.0631537  Min(alpha.water) = -4.34811e-38  Max(alpha.water) = 1
DICPCG:  Solving for p_rgh, Initial residual = 0.000268565, Final residual = 1.33986e-05, No Iterations 15
time step continuity errors : sum local = 3.38587e-22, global = -7.90601e-23, cumulative = -1.41733e-17
DICPCG:  Solving for p_rgh, Initial residual = 1.90408e-05, Final residual = 8.87582e-07, No Iterations 28
time step continuity errors : sum local = 2.24287e-23, global = -3.08645e-24, cumulative = -1.41733e-17
DICPCG:  Solving for p_rgh, Initial residual = 3.01944e-06, Final residual = 9.34736e-08, No Iterations 26
time step continuity errors : sum local = 2.36165e-24, global = -6.58159e-25, cumulative = -1.41733e-17
ExecutionTime = 4.85 s  ClockTime = 6 s

Courant Number mean: 2.2527e-11 max: 2.8414e-08
Interface Courant Number mean: 0 max: 0
deltaT = 1.64845e-12
Time = 9.83068e-12

smoothSolver:  Solving for alpha.water, Initial residual = 1.78828e-12, Final residual = 1.78828e-12, No Iterations 0
Phase-1 volume fraction = 0.0631537  Min(alpha.water) = -4.34811e-38  Max(alpha.water) = 1
MULES: Correcting alpha.water
MULES: Correcting alpha.water
Phase-1 volume fraction = 0.0631537  Min(alpha.water) = -4.34811e-38  Max(alpha.water) = 1
DICPCG:  Solving for p_rgh, Initial residual = 0.000112069, Final residual = 4.99586e-06, No Iterations 22
time step continuity errors : sum local = 1.81761e-22, global = -1.2795e-23, cumulative = -1.41734e-17
DICPCG:  Solving for p_rgh, Initial residual = 7.13494e-06, Final residual = 3.43167e-07, No Iterations 21
time step continuity errors : sum local = 1.2484e-23, global = -5.39698e-24, cumulative = -1.41734e-17
DICPCG:  Solving for p_rgh, Initial residual = 6.12442e-07, Final residual = 9.46509e-08, No Iterations 18
time step continuity errors : sum local = 3.44335e-24, global = -8.29595e-25, cumulative = -1.41734e-17
ExecutionTime = 4.99 s  ClockTime = 6 s

Courant Number mean: 2.70324e-11 max: 3.40968e-08
Interface Courant Number mean: 0 max: 0
deltaT = 1.97814e-12
Time = 1.18088e-11

smoothSolver:  Solving for alpha.water, Initial residual = 2.14594e-12, Final residual = 2.14594e-12, No Iterations 0
Phase-1 volume fraction = 0.0631537  Min(alpha.water) = -4.34811e-38  Max(alpha.water) = 1
MULES: Correcting alpha.water
MULES: Correcting alpha.water
Phase-1 volume fraction = 0.0631537  Min(alpha.water) = -4.34811e-38  Max(alpha.water) = 1
DICPCG:  Solving for p_rgh, Initial residual = 4.68243e-05, Final residual = 2.27236e-06, No Iterations 22
time step continuity errors : sum local = 1.1904e-22, global = -7.85129e-24, cumulative = -1.41734e-17
DICPCG:  Solving for p_rgh, Initial residual = 3.15322e-06, Final residual = 1.5266e-07, No Iterations 21
time step continuity errors : sum local = 7.99707e-24, global = -3.46322e-24, cumulative = -1.41734e-17
DICPCG:  Solving for p_rgh, Initial residual = 2.69487e-07, Final residual = 8.86234e-08, No Iterations 7
time step continuity errors : sum local = 4.64266e-24, global = -1.48499e-24, cumulative = -1.41734e-17
ExecutionTime = 5.11 s  ClockTime = 6 s

Courant Number mean: 3.24389e-11 max: 4.09162e-08
Interface Courant Number mean: 0 max: 0
deltaT = 2.37376e-12
Time = 1.41826e-11

smoothSolver:  Solving for alpha.water, Initial residual = 2.57512e-12, Final residual = 2.57512e-12, No Iterations 0
Phase-1 volume fraction = 0.0631537  Min(alpha.water) = -4.34811e-38  Max(alpha.water) = 1
MULES: Correcting alpha.water
MULES: Correcting alpha.water
Phase-1 volume fraction = 0.0631537  Min(alpha.water) = -4.34811e-38  Max(alpha.water) = 1
DICPCG:  Solving for p_rgh, Initial residual = 1.96308e-05, Final residual = 9.50514e-07, No Iterations 22
time step continuity errors : sum local = 7.17006e-23, global = -5.42707e-24, cumulative = -1.41734e-17
DICPCG:  Solving for p_rgh, Initial residual = 1.3257e-06, Final residual = 9.27803e-08, No Iterations 19
time step continuity errors : sum local = 6.99873e-24, global = -2.77766e-24, cumulative = -1.41734e-17
DICPCG:  Solving for p_rgh, Initial residual = 1.3687e-07, Final residual = 6.74506e-08, No Iterations 1
time step continuity errors : sum local = 5.08814e-24, global = -2.80249e-24, cumulative = -1.41734e-17
ExecutionTime = 5.24 s  ClockTime = 6 s

Courant Number mean: 3.89267e-11 max: 4.90994e-08
Interface Courant Number mean: 0 max: 0
deltaT = 2.84852e-12
Time = 1.70311e-11

smoothSolver:  Solving for alpha.water, Initial residual = 3.09015e-12, Final residual = 3.09015e-12, No Iterations 0
Phase-1 volume fraction = 0.0631537  Min(alpha.water) = -4.34811e-38  Max(alpha.water) = 1
MULES: Correcting alpha.water
MULES: Correcting alpha.water
Phase-1 volume fraction = 0.0631537  Min(alpha.water) = -4.34811e-38  Max(alpha.water) = 1
DICPCG:  Solving for p_rgh, Initial residual = 8.26244e-06, Final residual = 2.66272e-07, No Iterations 23
time step continuity errors : sum local = 2.89235e-23, global = -2.31577e-24, cumulative = -1.41734e-17
DICPCG:  Solving for p_rgh, Initial residual = 4.51546e-07, Final residual = 8.32611e-08, No Iterations 2
time step continuity errors : sum local = 9.04397e-24, global = -1.48613e-24, cumulative = -1.41734e-17
DICPCG:  Solving for p_rgh, Initial residual = 8.58552e-08, Final residual = 8.58552e-08, No Iterations 0
time step continuity errors : sum local = 9.32584e-24, global = -1.48621e-24, cumulative = -1.41734e-17
ExecutionTime = 5.36 s  ClockTime = 6 s

Courant Number mean: 4.6712e-11 max: 5.89193e-08
Interface Courant Number mean: 0 max: 0
deltaT = 3.41822e-12
Time = 2.04493e-11

smoothSolver:  Solving for alpha.water, Initial residual = 3.70817e-12, Final residual = 3.70817e-12, No Iterations 0
Phase-1 volume fraction = 0.0631537  Min(alpha.water) = -4.34811e-38  Max(alpha.water) = 1
MULES: Correcting alpha.water
MULES: Correcting alpha.water
Phase-1 volume fraction = 0.0631537  Min(alpha.water) = -4.34811e-38  Max(alpha.water) = 1
DICPCG:  Solving for p_rgh, Initial residual = 3.55488e-06, Final residual = 1.37484e-07, No Iterations 23
time step continuity errors : sum local = 2.15048e-23, global = -9.71996e-25, cumulative = -1.41734e-17
DICPCG:  Solving for p_rgh, Initial residual = 2.21201e-07, Final residual = 7.13953e-08, No Iterations 1
time step continuity errors : sum local = 1.11675e-23, global = -3.56977e-25, cumulative = -1.41734e-17
DICPCG:  Solving for p_rgh, Initial residual = 7.20146e-08, Final residual = 7.20146e-08, No Iterations 0
time step continuity errors : sum local = 1.12641e-23, global = -3.57102e-25, cumulative = -1.41734e-17
ExecutionTime = 5.48 s  ClockTime = 6 s

Courant Number mean: 5.60544e-11 max: 7.07032e-08
Interface Courant Number mean: 0 max: 0
deltaT = 4.10186e-12
Time = 2.45512e-11

smoothSolver:  Solving for alpha.water, Initial residual = 4.44981e-12, Final residual = 4.44981e-12, No Iterations 0
Phase-1 volume fraction = 0.0631537  Min(alpha.water) = -4.34811e-38  Max(alpha.water) = 1
MULES: Correcting alpha.water
MULES: Correcting alpha.water
Phase-1 volume fraction = 0.0631537  Min(alpha.water) = -4.34811e-38  Max(alpha.water) = 1
DICPCG:  Solving for p_rgh, Initial residual = 1.52186e-06, Final residual = 9.64577e-08, No Iterations 15
time step continuity errors : sum local = 2.17265e-23, global = -3.18818e-24, cumulative = -1.41734e-17
DICPCG:  Solving for p_rgh, Initial residual = 1.27685e-07, Final residual = 5.17038e-08, No Iterations 1
time step continuity errors : sum local = 1.16458e-23, global = -2.80171e-24, cumulative = -1.41734e-17
DICPCG:  Solving for p_rgh, Initial residual = 5.20702e-08, Final residual = 5.20702e-08, No Iterations 0
time step continuity errors : sum local = 1.17284e-23, global = -2.80154e-24, cumulative = -1.41734e-17
ExecutionTime = 5.6 s  ClockTime = 6 s

Courant Number mean: 6.72653e-11 max: 8.48438e-08
Interface Courant Number mean: 0 max: 0
deltaT = 4.92224e-12
Time = 2.94734e-11

smoothSolver:  Solving for alpha.water, Initial residual = 5.33976e-12, Final residual = 5.33976e-12, No Iterations 0
Phase-1 volume fraction = 0.0631537  Min(alpha.water) = -4.34811e-38  Max(alpha.water) = 1
MULES: Correcting alpha.water
MULES: Correcting alpha.water
Phase-1 volume fraction = 0.0631537  Min(alpha.water) = -4.34811e-38  Max(alpha.water) = 1
DICPCG:  Solving for p_rgh, Initial residual = 6.9799e-07, Final residual = 7.27135e-08, No Iterations 16
time step continuity errors : sum local = 2.35842e-23, global = -2.27193e-24, cumulative = -1.41734e-17
DICPCG:  Solving for p_rgh, Initial residual = 9.15784e-08, Final residual = 9.15784e-08, No Iterations 0
time step continuity errors : sum local = 2.9703e-23, global = -2.27182e-24, cumulative = -1.41734e-17
DICPCG:  Solving for p_rgh, Initial residual = 9.15784e-08, Final residual = 9.15784e-08, No Iterations 0
time step continuity errors : sum local = 2.9703e-23, global = -2.27182e-24, cumulative = -1.41734e-17
ExecutionTime = 5.71 s  ClockTime = 7 s

Courant Number mean: 8.07183e-11 max: 1.01813e-07
Interface Courant Number mean: 0 max: 0
deltaT = 5.90668e-12
Time = 3.53801e-11

smoothSolver:  Solving for alpha.water, Initial residual = 6.40771e-12, Final residual = 6.40771e-12, No Iterations 0
Phase-1 volume fraction = 0.0631537  Min(alpha.water) = -4.34811e-38  Max(alpha.water) = 1
MULES: Correcting alpha.water
MULES: Correcting alpha.water
Phase-1 volume fraction = 0.0631537  Min(alpha.water) = -4.34811e-38  Max(alpha.water) = 1
DICPCG:  Solving for p_rgh, Initial residual = 3.90922e-07, Final residual = 9.99139e-08, No Iterations 4
time step continuity errors : sum local = 4.66652e-23, global = -3.44473e-24, cumulative = -1.41734e-17
DICPCG:  Solving for p_rgh, Initial residual = 1.04127e-07, Final residual = 6.77854e-08, No Iterations 1
time step continuity errors : sum local = 3.16597e-23, global = -4.19178e-24, cumulative = -1.41734e-17
DICPCG:  Solving for p_rgh, Initial residual = 6.78591e-08, Final residual = 6.78591e-08, No Iterations 0
time step continuity errors : sum local = 3.16942e-23, global = -4.19162e-24, cumulative = -1.41734e-17
ExecutionTime = 5.85 s  ClockTime = 7 s

Courant Number mean: 9.6862e-11 max: 1.22175e-07
Interface Courant Number mean: 0 max: 0
deltaT = 7.08802e-12
Time = 4.24681e-11

smoothSolver:  Solving for alpha.water, Initial residual = 7.68926e-12, Final residual = 7.68926e-12, No Iterations 0
Phase-1 volume fraction = 0.0631537  Min(alpha.water) = -4.34811e-38  Max(alpha.water) = 1
MULES: Correcting alpha.water
MULES: Correcting alpha.water
Phase-1 volume fraction = 0.0631537  Min(alpha.water) = -4.34811e-38  Max(alpha.water) = 1
DICPCG:  Solving for p_rgh, Initial residual = 2.19602e-07, Final residual = 9.17266e-08, No Iterations 5
time step continuity errors : sum local = 6.16918e-23, global = -2.16747e-24, cumulative = -1.41734e-17
DICPCG:  Solving for p_rgh, Initial residual = 9.52539e-08, Final residual = 9.52539e-08, No Iterations 0
time step continuity errors : sum local = 6.40638e-23, global = -2.16737e-24, cumulative = -1.41734e-17
DICPCG:  Solving for p_rgh, Initial residual = 9.52539e-08, Final residual = 9.52539e-08, No Iterations 0
time step continuity errors : sum local = 6.40638e-23, global = -2.16737e-24, cumulative = -1.41734e-17
ExecutionTime = 5.95 s  ClockTime = 7 s

Courant Number mean: 1.16234e-10 max: 1.4661e-07
Interface Courant Number mean: 0 max: 0
deltaT = 8.50562e-12
Time = 5.09737e-11

smoothSolver:  Solving for alpha.water, Initial residual = 9.2271e-12, Final residual = 9.2271e-12, No Iterations 0
Phase-1 volume fraction = 0.0631537  Min(alpha.water) = -4.34811e-38  Max(alpha.water) = 1
MULES: Correcting alpha.water
MULES: Correcting alpha.water
Phase-1 volume fraction = 0.0631537  Min(alpha.water) = -4.34811e-38  Max(alpha.water) = 1
DICPCG:  Solving for p_rgh, Initial residual = 1.86993e-07, Final residual = 9.92047e-08, No Iterations 1
time step continuity errors : sum local = 9.60782e-23, global = -7.00205e-24, cumulative = -1.41734e-17
DICPCG:  Solving for p_rgh, Initial residual = 9.89643e-08, Final residual = 9.89643e-08, No Iterations 0
time step continuity errors : sum local = 9.58449e-23, global = -7.0018e-24, cumulative = -1.41734e-17
DICPCG:  Solving for p_rgh, Initial residual = 9.89643e-08, Final residual = 9.89643e-08, No Iterations 0
time step continuity errors : sum local = 9.58449e-23, global = -7.0018e-24, cumulative = -1.41734e-17
ExecutionTime = 6.06 s  ClockTime = 7 s

Courant Number mean: 1.39481e-10 max: 1.75932e-07
Interface Courant Number mean: 0 max: 0
deltaT = 1.02067e-11
Time = 6.11805e-11

smoothSolver:  Solving for alpha.water, Initial residual = 1.10725e-11, Final residual = 1.10725e-11, No Iterations 0
Phase-1 volume fraction = 0.0631537  Min(alpha.water) = -4.34811e-38  Max(alpha.water) = 1
MULES: Correcting alpha.water
MULES: Correcting alpha.water
Phase-1 volume fraction = 0.0631537  Min(alpha.water) = -4.34811e-38  Max(alpha.water) = 1
DICPCG:  Solving for p_rgh, Initial residual = 1.65918e-07, Final residual = 9.24815e-08, No Iterations 2
time step continuity errors : sum local = 1.28976e-22, global = 1.26888e-23, cumulative = -1.41734e-17
DICPCG:  Solving for p_rgh, Initial residual = 9.25478e-08, Final residual = 9.25478e-08, No Iterations 0
time step continuity errors : sum local = 1.29068e-22, global = 1.26886e-23, cumulative = -1.41734e-17
DICPCG:  Solving for p_rgh, Initial residual = 9.25478e-08, Final residual = 9.25478e-08, No Iterations 0
time step continuity errors : sum local = 1.29068e-22, global = 1.26886e-23, cumulative = -1.41734e-17
ExecutionTime = 6.19 s  ClockTime = 7 s

Courant Number mean: 1.67378e-10 max: 2.11118e-07
Interface Courant Number mean: 0 max: 0
deltaT = 1.22481e-11
Time = 7.34286e-11

smoothSolver:  Solving for alpha.water, Initial residual = 1.3287e-11, Final residual = 1.3287e-11, No Iterations 0
Phase-1 volume fraction = 0.0631537  Min(alpha.water) = -4.34811e-38  Max(alpha.water) = 1
MULES: Correcting alpha.water
MULES: Correcting alpha.water
Phase-1 volume fraction = 0.0631537  Min(alpha.water) = -4.34811e-38  Max(alpha.water) = 1
DICPCG:  Solving for p_rgh, Initial residual = 1.4462e-07, Final residual = 7.83558e-08, No Iterations 1
time step continuity errors : sum local = 1.57358e-22, global = -5.02583e-24, cumulative = -1.41734e-17
DICPCG:  Solving for p_rgh, Initial residual = 7.82342e-08, Final residual = 7.82342e-08, No Iterations 0
time step continuity errors : sum local = 1.57113e-22, global = -5.02556e-24, cumulative = -1.41734e-17
DICPCG:  Solving for p_rgh, Initial residual = 7.82342e-08, Final residual = 7.82342e-08, No Iterations 0
time step continuity errors : sum local = 1.57113e-22, global = -5.02556e-24, cumulative = -1.41734e-17
ExecutionTime = 6.3 s  ClockTime = 7 s

Courant Number mean: 2.00853e-10 max: 2.53342e-07
Interface Courant Number mean: 0 max: 0
deltaT = 1.46977e-11
Time = 8.81263e-11

smoothSolver:  Solving for alpha.water, Initial residual = 1.59444e-11, Final residual = 1.59444e-11, No Iterations 0
Phase-1 volume fraction = 0.0631537  Min(alpha.water) = -4.34811e-38  Max(alpha.water) = 1
MULES: Correcting alpha.water
MULES: Correcting alpha.water
Phase-1 volume fraction = 0.0631537  Min(alpha.water) = -4.34811e-38  Max(alpha.water) = 1
DICPCG:  Solving for p_rgh, Initial residual = 1.19088e-07, Final residual = 7.92924e-08, No Iterations 1
time step continuity errors : sum local = 2.29303e-22, global = -2.68447e-23, cumulative = -1.41734e-17
DICPCG:  Solving for p_rgh, Initial residual = 7.9285e-08, Final residual = 7.9285e-08, No Iterations 0
time step continuity errors : sum local = 2.29282e-22, global = -2.68442e-23, cumulative = -1.41735e-17
DICPCG:  Solving for p_rgh, Initial residual = 7.9285e-08, Final residual = 7.9285e-08, No Iterations 0
time step continuity errors : sum local = 2.29282e-22, global = -2.68442e-23, cumulative = -1.41735e-17
ExecutionTime = 6.42 s  ClockTime = 7 s

Courant Number mean: 2.41024e-10 max: 3.04011e-07
Interface Courant Number mean: 0 max: 0
deltaT = 1.76373e-11
Time = 1.05764e-10

smoothSolver:  Solving for alpha.water, Initial residual = 1.91333e-11, Final residual = 1.91333e-11, No Iterations 0
Phase-1 volume fraction = 0.0631537  Min(alpha.water) = -4.34811e-38  Max(alpha.water) = 1
MULES: Correcting alpha.water
MULES: Correcting alpha.water
Phase-1 volume fraction = 0.0631537  Min(alpha.water) = -4.34811e-38  Max(alpha.water) = 1
DICPCG:  Solving for p_rgh, Initial residual = 1.02734e-07, Final residual = 7.71273e-08, No Iterations 1
time step continuity errors : sum local = 3.21181e-22, global = -6.09242e-23, cumulative = -1.41736e-17
DICPCG:  Solving for p_rgh, Initial residual = 7.71263e-08, Final residual = 7.71263e-08, No Iterations 0
time step continuity errors : sum local = 3.21177e-22, global = -6.09237e-23, cumulative = -1.41736e-17
DICPCG:  Solving for p_rgh, Initial residual = 7.71263e-08, Final residual = 7.71263e-08, No Iterations 0
time step continuity errors : sum local = 3.21177e-22, global = -6.09237e-23, cumulative = -1.41737e-17
ExecutionTime = 6.53 s  ClockTime = 7 s

Courant Number mean: 2.89228e-10 max: 3.64813e-07
Interface Courant Number mean: 0 max: 0
deltaT = 2.11647e-11
Time = 1.26928e-10

smoothSolver:  Solving for alpha.water, Initial residual = 2.296e-11, Final residual = 2.296e-11, No Iterations 0
Phase-1 volume fraction = 0.0631537  Min(alpha.water) = -4.34811e-38  Max(alpha.water) = 1
MULES: Correcting alpha.water
MULES: Correcting alpha.water
Phase-1 volume fraction = 0.0631537  Min(alpha.water) = -4.34811e-38  Max(alpha.water) = 1
DICPCG:  Solving for p_rgh, Initial residual = 9.22233e-08, Final residual = 9.22233e-08, No Iterations 0
time step continuity errors : sum local = 5.53024e-22, global = -1.21465e-22, cumulative = -1.41738e-17
DICPCG:  Solving for p_rgh, Initial residual = 9.22827e-08, Final residual = 9.22827e-08, No Iterations 0
time step continuity errors : sum local = 5.53379e-22, global = -1.21465e-22, cumulative = -1.41739e-17
DICPCG:  Solving for p_rgh, Initial residual = 9.22827e-08, Final residual = 9.22827e-08, No Iterations 0
time step continuity errors : sum local = 5.53379e-22, global = -1.21465e-22, cumulative = -1.4174e-17
ExecutionTime = 6.64 s  ClockTime = 8 s

Courant Number mean: 3.47074e-10 max: 4.37775e-07
Interface Courant Number mean: 0 max: 0
deltaT = 2.53977e-11
Time = 1.52326e-10

smoothSolver:  Solving for alpha.water, Initial residual = 2.7552e-11, Final residual = 2.7552e-11, No Iterations 0
Phase-1 volume fraction = 0.0631537  Min(alpha.water) = -4.34811e-38  Max(alpha.water) = 1
MULES: Correcting alpha.water
MULES: Correcting alpha.water
Phase-1 volume fraction = 0.0631537  Min(alpha.water) = -4.34811e-38  Max(alpha.water) = 1
DICPCG:  Solving for p_rgh, Initial residual = 1.10654e-07, Final residual = 8.01805e-08, No Iterations 1
time step continuity errors : sum local = 6.92364e-22, global = -1.94332e-22, cumulative = -1.41742e-17
DICPCG:  Solving for p_rgh, Initial residual = 8.01944e-08, Final residual = 8.01944e-08, No Iterations 0
time step continuity errors : sum local = 6.92484e-22, global = -1.94333e-22, cumulative = -1.41744e-17
DICPCG:  Solving for p_rgh, Initial residual = 8.01944e-08, Final residual = 8.01944e-08, No Iterations 0
time step continuity errors : sum local = 6.92484e-22, global = -1.94333e-22, cumulative = -1.41746e-17
ExecutionTime = 6.78 s  ClockTime = 8 s

Courant Number mean: 4.16489e-10 max: 5.2533e-07
Interface Courant Number mean: 0 max: 0
deltaT = 3.04772e-11
Time = 1.82803e-10

smoothSolver:  Solving for alpha.water, Initial residual = 3.30623e-11, Final residual = 3.30623e-11, No Iterations 0
Phase-1 volume fraction = 0.0631537  Min(alpha.water) = -4.34811e-38  Max(alpha.water) = 1
MULES: Correcting alpha.water
MULES: Correcting alpha.water
Phase-1 volume fraction = 0.0631537  Min(alpha.water) = -4.34811e-38  Max(alpha.water) = 1
DICPCG:  Solving for p_rgh, Initial residual = 9.80151e-08, Final residual = 9.80151e-08, No Iterations 0
time step continuity errors : sum local = 1.21877e-21, global = -3.12238e-22, cumulative = -1.41749e-17
DICPCG:  Solving for p_rgh, Initial residual = 9.8094e-08, Final residual = 9.8094e-08, No Iterations 0
time step continuity errors : sum local = 1.21975e-21, global = -3.12236e-22, cumulative = -1.41753e-17
DICPCG:  Solving for p_rgh, Initial residual = 9.8094e-08, Final residual = 9.8094e-08, No Iterations 0
time step continuity errors : sum local = 1.21975e-21, global = -3.12236e-22, cumulative = -1.41756e-17
ExecutionTime = 6.89 s  ClockTime = 8 s

Courant Number mean: 4.99787e-10 max: 6.30396e-07
Interface Courant Number mean: 0 max: 0
deltaT = 3.65726e-11
Time = 2.19376e-10

smoothSolver:  Solving for alpha.water, Initial residual = 3.96748e-11, Final residual = 3.96748e-11, No Iterations 0
Phase-1 volume fraction = 0.0631537  Min(alpha.water) = -4.34811e-38  Max(alpha.water) = 1
MULES: Correcting alpha.water
MULES: Correcting alpha.water
Phase-1 volume fraction = 0.0631537  Min(alpha.water) = -4.34811e-38  Max(alpha.water) = 1
DICPCG:  Solving for p_rgh, Initial residual = 1.19667e-07, Final residual = 7.81288e-08, No Iterations 1
time step continuity errors : sum local = 1.39895e-21, global = -4.4727e-22, cumulative = -1.4176e-17
DICPCG:  Solving for p_rgh, Initial residual = 7.80699e-08, Final residual = 7.80699e-08, No Iterations 0
time step continuity errors : sum local = 1.39789e-21, global = -4.47272e-22, cumulative = -1.41765e-17
DICPCG:  Solving for p_rgh, Initial residual = 7.80699e-08, Final residual = 7.80699e-08, No Iterations 0
time step continuity errors : sum local = 1.39789e-21, global = -4.47272e-22, cumulative = -1.41769e-17
ExecutionTime = 7 s  ClockTime = 8 s

Courant Number mean: 5.99744e-10 max: 7.56476e-07
Interface Courant Number mean: 0 max: 0
deltaT = 4.38871e-11
Time = 2.63263e-10

smoothSolver:  Solving for alpha.water, Initial residual = 4.76098e-11, Final residual = 4.76098e-11, No Iterations 0
Phase-1 volume fraction = 0.0631537  Min(alpha.water) = -4.34811e-38  Max(alpha.water) = 1
MULES: Correcting alpha.water
MULES: Correcting alpha.water
Phase-1 volume fraction = 0.0631537  Min(alpha.water) = -4.34811e-38  Max(alpha.water) = 1
DICPCG:  Solving for p_rgh, Initial residual = 9.51836e-08, Final residual = 9.51836e-08, No Iterations 0
time step continuity errors : sum local = 2.45423e-21, global = -6.54369e-22, cumulative = -1.41776e-17
DICPCG:  Solving for p_rgh, Initial residual = 9.52913e-08, Final residual = 9.52913e-08, No Iterations 0
time step continuity errors : sum local = 2.45701e-21, global = -6.54369e-22, cumulative = -1.41782e-17
DICPCG:  Solving for p_rgh, Initial residual = 9.52913e-08, Final residual = 9.52913e-08, No Iterations 0
time step continuity errors : sum local = 2.45701e-21, global = -6.54369e-22, cumulative = -1.41789e-17
ExecutionTime = 7.1 s  ClockTime = 8 s

Courant Number mean: 7.19693e-10 max: 9.07771e-07
Interface Courant Number mean: 0 max: 0
deltaT = 5.26646e-11
Time = 3.15927e-10

smoothSolver:  Solving for alpha.water, Initial residual = 5.71317e-11, Final residual = 5.71317e-11, No Iterations 0
Phase-1 volume fraction = 0.0631537  Min(alpha.water) = -4.34811e-38  Max(alpha.water) = 1
MULES: Correcting alpha.water
MULES: Correcting alpha.water
Phase-1 volume fraction = 0.0631537  Min(alpha.water) = -4.34811e-38  Max(alpha.water) = 1
DICPCG:  Solving for p_rgh, Initial residual = 1.20777e-07, Final residual = 7.53111e-08, No Iterations 1
time step continuity errors : sum local = 2.79624e-21, global = -9.11403e-22, cumulative = -1.41798e-17
DICPCG:  Solving for p_rgh, Initial residual = 7.50174e-08, Final residual = 7.50174e-08, No Iterations 0
time step continuity errors : sum local = 2.78534e-21, global = -9.11402e-22, cumulative = -1.41807e-17
DICPCG:  Solving for p_rgh, Initial residual = 7.50174e-08, Final residual = 7.50174e-08, No Iterations 0
time step continuity errors : sum local = 2.78534e-21, global = -9.11402e-22, cumulative = -1.41816e-17
ExecutionTime = 7.21 s  ClockTime = 8 s

Courant Number mean: 8.63631e-10 max: 1.08933e-06
Interface Courant Number mean: 0 max: 0
deltaT = 6.31975e-11
Time = 3.79125e-10

smoothSolver:  Solving for alpha.water, Initial residual = 6.85581e-11, Final residual = 6.85581e-11, No Iterations 0
Phase-1 volume fraction = 0.0631537  Min(alpha.water) = -4.34811e-38  Max(alpha.water) = 1
MULES: Correcting alpha.water
MULES: Correcting alpha.water
Phase-1 volume fraction = 0.0631537  Min(alpha.water) = -4.34811e-38  Max(alpha.water) = 1
DICPCG:  Solving for p_rgh, Initial residual = 9.57977e-08, Final residual = 9.57977e-08, No Iterations 0
time step continuity errors : sum local = 5.12192e-21, global = -1.28208e-21, cumulative = -1.41829e-17
DICPCG:  Solving for p_rgh, Initial residual = 9.59529e-08, Final residual = 9.59529e-08, No Iterations 0
time step continuity errors : sum local = 5.13022e-21, global = -1.28208e-21, cumulative = -1.41842e-17
DICPCG:  Solving for p_rgh, Initial residual = 9.59529e-08, Final residual = 9.59529e-08, No Iterations 0
time step continuity errors : sum local = 5.13022e-21, global = -1.28208e-21, cumulative = -1.41855e-17
ExecutionTime = 7.32 s  ClockTime = 8 s

Courant Number mean: 1.03636e-09 max: 1.30719e-06
Interface Courant Number mean: 0 max: 0
deltaT = 7.5837e-11
Time = 4.54962e-10

smoothSolver:  Solving for alpha.water, Initial residual = 8.22697e-11, Final residual = 8.22697e-11, No Iterations 0
Phase-1 volume fraction = 0.0631537  Min(alpha.water) = -4.34811e-38  Max(alpha.water) = 1
MULES: Correcting alpha.water
MULES: Correcting alpha.water
Phase-1 volume fraction = 0.0631537  Min(alpha.water) = -4.34811e-38  Max(alpha.water) = 1
DICPCG:  Solving for p_rgh, Initial residual = 1.24883e-07, Final residual = 7.2408e-08, No Iterations 1
time step continuity errors : sum local = 5.57477e-21, global = -1.7453e-21, cumulative = -1.41872e-17
DICPCG:  Solving for p_rgh, Initial residual = 7.22455e-08, Final residual = 7.22455e-08, No Iterations 0
time step continuity errors : sum local = 5.56226e-21, global = -1.7453e-21, cumulative = -1.41889e-17
DICPCG:  Solving for p_rgh, Initial residual = 7.22455e-08, Final residual = 7.22455e-08, No Iterations 0
time step continuity errors : sum local = 5.56226e-21, global = -1.7453e-21, cumulative = -1.41907e-17
ExecutionTime = 7.42 s  ClockTime = 8 s

Courant Number mean: 1.24363e-09 max: 1.56863e-06
Interface Courant Number mean: 0 max: 0
deltaT = 9.10044e-11
Time = 5.45966e-10

smoothSolver:  Solving for alpha.water, Initial residual = 9.87236e-11, Final residual = 9.87236e-11, No Iterations 0
Phase-1 volume fraction = 0.0631537  Min(alpha.water) = -4.34811e-38  Max(alpha.water) = 1
MULES: Correcting alpha.water
MULES: Correcting alpha.water
Phase-1 volume fraction = 0.0631537  Min(alpha.water) = -4.34811e-38  Max(alpha.water) = 1
DICPCG:  Solving for p_rgh, Initial residual = 9.83617e-08, Final residual = 9.83617e-08, No Iterations 0
time step continuity errors : sum local = 1.09051e-20, global = -2.39975e-21, cumulative = -1.41931e-17
DICPCG:  Solving for p_rgh, Initial residual = 9.85721e-08, Final residual = 9.85721e-08, No Iterations 0
time step continuity errors : sum local = 1.09284e-20, global = -2.39976e-21, cumulative = -1.41955e-17
DICPCG:  Solving for p_rgh, Initial residual = 9.85721e-08, Final residual = 9.85721e-08, No Iterations 0
time step continuity errors : sum local = 1.09284e-20, global = -2.39976e-21, cumulative = -1.41979e-17
ExecutionTime = 7.52 s  ClockTime = 8 s

Courant Number mean: 1.49235e-09 max: 1.88235e-06
Interface Courant Number mean: 0 max: 0
deltaT = 1.09205e-10
Time = 6.55172e-10

smoothSolver:  Solving for alpha.water, Initial residual = 1.18468e-10, Final residual = 1.18468e-10, No Iterations 0
Phase-1 volume fraction = 0.0631537  Min(alpha.water) = -4.34811e-38  Max(alpha.water) = 1
MULES: Correcting alpha.water
MULES: Correcting alpha.water
Phase-1 volume fraction = 0.0631537  Min(alpha.water) = -4.34811e-38  Max(alpha.water) = 1
DICPCG:  Solving for p_rgh, Initial residual = 1.3558e-07, Final residual = 7.40201e-08, No Iterations 1
time step continuity errors : sum local = 1.18172e-20, global = -3.29111e-21, cumulative = -1.42012e-17
DICPCG:  Solving for p_rgh, Initial residual = 7.35982e-08, Final residual = 7.35982e-08, No Iterations 0
time step continuity errors : sum local = 1.17499e-20, global = -3.29111e-21, cumulative = -1.42045e-17
DICPCG:  Solving for p_rgh, Initial residual = 7.35982e-08, Final residual = 7.35982e-08, No Iterations 0
time step continuity errors : sum local = 1.17499e-20, global = -3.29111e-21, cumulative = -1.42078e-17
ExecutionTime = 7.64 s  ClockTime = 9 s

Courant Number mean: 1.79083e-09 max: 2.25882e-06
Interface Courant Number mean: 0 max: 0
deltaT = 1.31046e-10
Time = 7.86218e-10

smoothSolver:  Solving for alpha.water, Initial residual = 1.42162e-10, Final residual = 1.42162e-10, No Iterations 0
Phase-1 volume fraction = 0.0631537  Min(alpha.water) = -4.34811e-38  Max(alpha.water) = 1
MULES: Correcting alpha.water
MULES: Correcting alpha.water
Phase-1 volume fraction = 0.0631537  Min(alpha.water) = -4.34811e-38  Max(alpha.water) = 1
DICPCG:  Solving for p_rgh, Initial residual = 1.07248e-07, Final residual = 6.69184e-08, No Iterations 1
time step continuity errors : sum local = 1.53841e-20, global = -4.45902e-21, cumulative = -1.42122e-17
DICPCG:  Solving for p_rgh, Initial residual = 6.70188e-08, Final residual = 6.70188e-08, No Iterations 0
time step continuity errors : sum local = 1.54072e-20, global = -4.45902e-21, cumulative = -1.42167e-17
DICPCG:  Solving for p_rgh, Initial residual = 6.70188e-08, Final residual = 6.70188e-08, No Iterations 0
time step continuity errors : sum local = 1.54072e-20, global = -4.45902e-21, cumulative = -1.42211e-17
ExecutionTime = 7.75 s  ClockTime = 9 s

Courant Number mean: 2.14899e-09 max: 2.71059e-06
Interface Courant Number mean: 0 max: 0
deltaT = 1.57256e-10
Time = 9.43473e-10

smoothSolver:  Solving for alpha.water, Initial residual = 1.70594e-10, Final residual = 1.70594e-10, No Iterations 0
Phase-1 volume fraction = 0.0631537  Min(alpha.water) = -4.34811e-38  Max(alpha.water) = 1
MULES: Correcting alpha.water
MULES: Correcting alpha.water
Phase-1 volume fraction = 0.0631537  Min(alpha.water) = -4.34811e-38  Max(alpha.water) = 1
DICPCG:  Solving for p_rgh, Initial residual = 8.35032e-08, Final residual = 8.35032e-08, No Iterations 0
time step continuity errors : sum local = 2.76435e-20, global = -6.08251e-21, cumulative = -1.42272e-17
DICPCG:  Solving for p_rgh, Initial residual = 8.3845e-08, Final residual = 8.3845e-08, No Iterations 0
time step continuity errors : sum local = 2.77567e-20, global = -6.08251e-21, cumulative = -1.42333e-17
DICPCG:  Solving for p_rgh, Initial residual = 8.3845e-08, Final residual = 8.3845e-08, No Iterations 0
time step continuity errors : sum local = 2.77567e-20, global = -6.08251e-21, cumulative = -1.42394e-17
ExecutionTime = 7.9 s  ClockTime = 9 s

Courant Number mean: 2.57879e-09 max: 3.25271e-06
Interface Courant Number mean: 0 max: 0
deltaT = 1.88707e-10
Time = 1.13218e-09

smoothSolver:  Solving for alpha.water, Initial residual = 2.04713e-10, Final residual = 2.04713e-10, No Iterations 0
Phase-1 volume fraction = 0.0631537  Min(alpha.water) = -4.34811e-38  Max(alpha.water) = 1
MULES: Correcting alpha.water
MULES: Correcting alpha.water
Phase-1 volume fraction = 0.0631537  Min(alpha.water) = -4.34811e-38  Max(alpha.water) = 1
DICPCG:  Solving for p_rgh, Initial residual = 1.17488e-07, Final residual = 7.19981e-08, No Iterations 1
time step continuity errors : sum local = 3.43221e-20, global = -8.28585e-21, cumulative = -1.42477e-17
DICPCG:  Solving for p_rgh, Initial residual = 7.45277e-08, Final residual = 7.45277e-08, No Iterations 0
time step continuity errors : sum local = 3.5528e-20, global = -8.28585e-21, cumulative = -1.4256e-17
DICPCG:  Solving for p_rgh, Initial residual = 7.45277e-08, Final residual = 7.45277e-08, No Iterations 0
time step continuity errors : sum local = 3.5528e-20, global = -8.28585e-21, cumulative = -1.42642e-17
ExecutionTime = 8 s  ClockTime = 9 s

Courant Number mean: 3.09455e-09 max: 3.90325e-06
Interface Courant Number mean: 0 max: 0
deltaT = 2.26448e-10
Time = 1.35863e-09

smoothSolver:  Solving for alpha.water, Initial residual = 2.45656e-10, Final residual = 2.45656e-10, No Iterations 0
Phase-1 volume fraction = 0.0631537  Min(alpha.water) = -4.34811e-38  Max(alpha.water) = 1
MULES: Correcting alpha.water
MULES: Correcting alpha.water
Phase-1 volume fraction = 0.0631537  Min(alpha.water) = -4.34811e-38  Max(alpha.water) = 1
DICPCG:  Solving for p_rgh, Initial residual = 9.84092e-08, Final residual = 9.84092e-08, No Iterations 0
time step continuity errors : sum local = 6.75539e-20, global = -1.135e-20, cumulative = -1.42756e-17
DICPCG:  Solving for p_rgh, Initial residual = 9.88642e-08, Final residual = 9.88642e-08, No Iterations 0
time step continuity errors : sum local = 6.78663e-20, global = -1.135e-20, cumulative = -1.42869e-17
DICPCG:  Solving for p_rgh, Initial residual = 9.88642e-08, Final residual = 9.88642e-08, No Iterations 0
time step continuity errors : sum local = 6.78663e-20, global = -1.135e-20, cumulative = -1.42983e-17
ExecutionTime = 8.12 s  ClockTime = 9 s

Courant Number mean: 3.71346e-09 max: 4.6839e-06
Interface Courant Number mean: 0 max: 0
deltaT = 2.71738e-10
Time = 1.63037e-09

smoothSolver:  Solving for alpha.water, Initial residual = 2.94787e-10, Final residual = 2.94787e-10, No Iterations 0
Phase-1 volume fraction = 0.0631537  Min(alpha.water) = -4.34811e-38  Max(alpha.water) = 1
MULES: Correcting alpha.water
MULES: Correcting alpha.water
Phase-1 volume fraction = 0.0631537  Min(alpha.water) = -4.34811e-38  Max(alpha.water) = 1
DICPCG:  Solving for p_rgh, Initial residual = 1.40422e-07, Final residual = 8.21283e-08, No Iterations 1
time step continuity errors : sum local = 8.1184e-20, global = -1.56089e-20, cumulative = -1.43139e-17
DICPCG:  Solving for p_rgh, Initial residual = 8.23191e-08, Final residual = 8.23191e-08, No Iterations 0
time step continuity errors : sum local = 8.13726e-20, global = -1.56089e-20, cumulative = -1.43295e-17
DICPCG:  Solving for p_rgh, Initial residual = 8.23191e-08, Final residual = 8.23191e-08, No Iterations 0
time step continuity errors : sum local = 8.13726e-20, global = -1.56089e-20, cumulative = -1.43451e-17
ExecutionTime = 8.24 s  ClockTime = 9 s

Courant Number mean: 4.45615e-09 max: 5.62068e-06
Interface Courant Number mean: 0 max: 0
deltaT = 3.26085e-10
Time = 1.95645e-09

smoothSolver:  Solving for alpha.water, Initial residual = 3.53745e-10, Final residual = 3.53745e-10, No Iterations 0
Phase-1 volume fraction = 0.0631537  Min(alpha.water) = -4.34811e-38  Max(alpha.water) = 1
MULES: Correcting alpha.water
MULES: Correcting alpha.water
Phase-1 volume fraction = 0.0631537  Min(alpha.water) = -4.34811e-38  Max(alpha.water) = 1
DICPCG:  Solving for p_rgh, Initial residual = 1.39075e-07, Final residual = 8.36491e-08, No Iterations 1
time step continuity errors : sum local = 1.1907e-19, global = -2.15388e-20, cumulative = -1.43667e-17
DICPCG:  Solving for p_rgh, Initial residual = 8.38011e-08, Final residual = 8.38011e-08, No Iterations 0
time step continuity errors : sum local = 1.19286e-19, global = -2.15389e-20, cumulative = -1.43882e-17
DICPCG:  Solving for p_rgh, Initial residual = 8.38011e-08, Final residual = 8.38011e-08, No Iterations 0
time step continuity errors : sum local = 1.19286e-19, global = -2.15389e-20, cumulative = -1.44097e-17
ExecutionTime = 8.34 s  ClockTime = 9 s

Courant Number mean: 5.34738e-09 max: 6.74481e-06
Interface Courant Number mean: 0 max: 0
deltaT = 3.91302e-10
Time = 2.34775e-09

smoothSolver:  Solving for alpha.water, Initial residual = 4.24493e-10, Final residual = 4.24493e-10, No Iterations 0
Phase-1 volume fraction = 0.0631537  Min(alpha.water) = -4.34811e-38  Max(alpha.water) = 1
MULES: Correcting alpha.water
MULES: Correcting alpha.water
Phase-1 volume fraction = 0.0631537  Min(alpha.water) = -4.34811e-38  Max(alpha.water) = 1
DICPCG:  Solving for p_rgh, Initial residual = 1.26344e-07, Final residual = 8.08107e-08, No Iterations 1
time step continuity errors : sum local = 1.65642e-19, global = -2.98041e-20, cumulative = -1.44395e-17
DICPCG:  Solving for p_rgh, Initial residual = 8.22036e-08, Final residual = 8.22036e-08, No Iterations 0
time step continuity errors : sum local = 1.68497e-19, global = -2.98041e-20, cumulative = -1.44693e-17
DICPCG:  Solving for p_rgh, Initial residual = 8.22036e-08, Final residual = 8.22036e-08, No Iterations 0
time step continuity errors : sum local = 1.68497e-19, global = -2.98041e-20, cumulative = -1.44992e-17
ExecutionTime = 8.44 s  ClockTime = 9 s

Courant Number mean: 6.41685e-09 max: 8.09378e-06
Interface Courant Number mean: 0 max: 0
deltaT = 4.69563e-10
Time = 2.81732e-09

smoothSolver:  Solving for alpha.water, Initial residual = 5.09392e-10, Final residual = 5.09392e-10, No Iterations 0
Phase-1 volume fraction = 0.0631537  Min(alpha.water) = -4.34811e-38  Max(alpha.water) = 1
MULES: Correcting alpha.water
MULES: Correcting alpha.water
Phase-1 volume fraction = 0.0631537  Min(alpha.water) = -4.34811e-38  Max(alpha.water) = 1
DICPCG:  Solving for p_rgh, Initial residual = 1.32244e-07, Final residual = 8.38982e-08, No Iterations 1
time step continuity errors : sum local = 2.47638e-19, global = -4.12636e-20, cumulative = -1.45404e-17
DICPCG:  Solving for p_rgh, Initial residual = 8.51347e-08, Final residual = 8.51347e-08, No Iterations 0
time step continuity errors : sum local = 2.51287e-19, global = -4.12636e-20, cumulative = -1.45817e-17
DICPCG:  Solving for p_rgh, Initial residual = 8.51347e-08, Final residual = 8.51347e-08, No Iterations 0
time step continuity errors : sum local = 2.51288e-19, global = -4.12636e-20, cumulative = -1.46229e-17
ExecutionTime = 8.54 s  ClockTime = 10 s

Courant Number mean: 7.70022e-09 max: 9.71253e-06
Interface Courant Number mean: 0 max: 0
deltaT = 5.63475e-10
Time = 3.38079e-09

smoothSolver:  Solving for alpha.water, Initial residual = 6.11271e-10, Final residual = 6.11271e-10, No Iterations 0
Phase-1 volume fraction = 0.0631537  Min(alpha.water) = -4.34811e-38  Max(alpha.water) = 1
MULES: Correcting alpha.water
MULES: Correcting alpha.water
Phase-1 volume fraction = 0.0631537  Min(alpha.water) = -4.34811e-38  Max(alpha.water) = 1
DICPCG:  Solving for p_rgh, Initial residual = 1.50384e-07, Final residual = 9.01583e-08, No Iterations 1
time step continuity errors : sum local = 3.83206e-19, global = -5.70458e-20, cumulative = -1.468e-17
DICPCG:  Solving for p_rgh, Initial residual = 9.22272e-08, Final residual = 9.22272e-08, No Iterations 0
time step continuity errors : sum local = 3.91999e-19, global = -5.70458e-20, cumulative = -1.4737e-17
DICPCG:  Solving for p_rgh, Initial residual = 9.22272e-08, Final residual = 9.22272e-08, No Iterations 0
time step continuity errors : sum local = 3.91999e-19, global = -5.70458e-20, cumulative = -1.47941e-17
ExecutionTime = 8.66 s  ClockTime = 10 s

Courant Number mean: 9.24026e-09 max: 1.1655e-05
Interface Courant Number mean: 0 max: 0
deltaT = 6.7617e-10
Time = 4.05696e-09

smoothSolver:  Solving for alpha.water, Initial residual = 7.33525e-10, Final residual = 7.33525e-10, No Iterations 0
Phase-1 volume fraction = 0.0631537  Min(alpha.water) = -4.34811e-38  Max(alpha.water) = 1
MULES: Correcting alpha.water
MULES: Correcting alpha.water
Phase-1 volume fraction = 0.0631537  Min(alpha.water) = -4.34811e-38  Max(alpha.water) = 1
DICPCG:  Solving for p_rgh, Initial residual = 1.66759e-07, Final residual = 9.86095e-08, No Iterations 1
time step continuity errors : sum local = 6.03542e-19, global = -7.86599e-20, cumulative = -1.48727e-17
DICPCG:  Solving for p_rgh, Initial residual = 1.00815e-07, Final residual = 7.97538e-08, No Iterations 1
time step continuity errors : sum local = 4.88134e-19, global = -7.78423e-20, cumulative = -1.49506e-17
DICPCG:  Solving for p_rgh, Initial residual = 8.09156e-08, Final residual = 8.09156e-08, No Iterations 0
time step continuity errors : sum local = 4.95245e-19, global = -7.78423e-20, cumulative = -1.50284e-17
ExecutionTime = 8.77 s  ClockTime = 10 s

Courant Number mean: 1.10883e-08 max: 1.3986e-05
Interface Courant Number mean: 0 max: 0
deltaT = 8.11404e-10
Time = 4.86836e-09

smoothSolver:  Solving for alpha.water, Initial residual = 8.8023e-10, Final residual = 8.8023e-10, No Iterations 0
Phase-1 volume fraction = 0.0631537  Min(alpha.water) = -4.34811e-38  Max(alpha.water) = 1
MULES: Correcting alpha.water
MULES: Correcting alpha.water
Phase-1 volume fraction = 0.0631537  Min(alpha.water) = -4.34811e-38  Max(alpha.water) = 1
DICPCG:  Solving for p_rgh, Initial residual = 1.54847e-07, Final residual = 9.12565e-08, No Iterations 1
time step continuity errors : sum local = 8.04292e-19, global = -1.05874e-19, cumulative = -1.51343e-17
DICPCG:  Solving for p_rgh, Initial residual = 1.0393e-07, Final residual = 7.72018e-08, No Iterations 1
time step continuity errors : sum local = 6.8042e-19, global = -1.04876e-19, cumulative = -1.52392e-17
DICPCG:  Solving for p_rgh, Initial residual = 8.25589e-08, Final residual = 8.25589e-08, No Iterations 0
time step continuity errors : sum local = 7.27635e-19, global = -1.04876e-19, cumulative = -1.5344e-17
ExecutionTime = 8.88 s  ClockTime = 10 s

Courant Number mean: 1.3306e-08 max: 1.67833e-05
Interface Courant Number mean: 0 max: 0
deltaT = 9.73685e-10
Time = 5.84205e-09

smoothSolver:  Solving for alpha.water, Initial residual = 1.05628e-09, Final residual = 1.05628e-09, No Iterations 0
Phase-1 volume fraction = 0.0631537  Min(alpha.water) = -4.34811e-38  Max(alpha.water) = 1
MULES: Correcting alpha.water
MULES: Correcting alpha.water
Phase-1 volume fraction = 0.0631537  Min(alpha.water) = -4.34811e-38  Max(alpha.water) = 1
DICPCG:  Solving for p_rgh, Initial residual = 1.75247e-07, Final residual = 9.08236e-08, No Iterations 11
time step continuity errors : sum local = 1.15268e-18, global = -9.8435e-20, cumulative = -1.54425e-17
DICPCG:  Solving for p_rgh, Initial residual = 1.25958e-07, Final residual = 6.29239e-08, No Iterations 1
time step continuity errors : sum local = 7.98564e-19, global = -9.90343e-20, cumulative = -1.55415e-17
DICPCG:  Solving for p_rgh, Initial residual = 6.81438e-08, Final residual = 6.81438e-08, No Iterations 0
time step continuity errors : sum local = 8.64808e-19, global = -9.90343e-20, cumulative = -1.56406e-17
ExecutionTime = 8.98 s  ClockTime = 10 s

Courant Number mean: 1.59672e-08 max: 2.01399e-05
Interface Courant Number mean: 0 max: 0
deltaT = 1.16842e-09
Time = 7.01047e-09

smoothSolver:  Solving for alpha.water, Initial residual = 1.26753e-09, Final residual = 1.26753e-09, No Iterations 0
Phase-1 volume fraction = 0.0631537  Min(alpha.water) = -4.34811e-38  Max(alpha.water) = 1
MULES: Correcting alpha.water
MULES: Correcting alpha.water
Phase-1 volume fraction = 0.0631537  Min(alpha.water) = -4.34811e-38  Max(alpha.water) = 1
DICPCG:  Solving for p_rgh, Initial residual = 2.44697e-07, Final residual = 9.66679e-08, No Iterations 10
time step continuity errors : sum local = 1.7666e-18, global = -9.86904e-20, cumulative = -1.57392e-17
DICPCG:  Solving for p_rgh, Initial residual = 1.34852e-07, Final residual = 5.89973e-08, No Iterations 1
time step continuity errors : sum local = 1.07819e-18, global = -9.6572e-20, cumulative = -1.58358e-17
DICPCG:  Solving for p_rgh, Initial residual = 6.40588e-08, Final residual = 6.40588e-08, No Iterations 0
time step continuity errors : sum local = 1.17069e-18, global = -9.6572e-20, cumulative = -1.59324e-17
ExecutionTime = 9.1 s  ClockTime = 10 s

Courant Number mean: 1.91606e-08 max: 2.41679e-05
Interface Courant Number mean: 0 max: 0
deltaT = 1.40211e-09
Time = 8.41258e-09

smoothSolver:  Solving for alpha.water, Initial residual = 1.52104e-09, Final residual = 1.52104e-09, No Iterations 0
Phase-1 volume fraction = 0.0631537  Min(alpha.water) = -4.34811e-38  Max(alpha.water) = 1
MULES: Correcting alpha.water
MULES: Correcting alpha.water
Phase-1 volume fraction = 0.0631537  Min(alpha.water) = -4.34811e-38  Max(alpha.water) = 1
DICPCG:  Solving for p_rgh, Initial residual = 2.68139e-07, Final residual = 9.38956e-08, No Iterations 4
time step continuity errors : sum local = 2.47099e-18, global = -4.84105e-20, cumulative = -1.59808e-17
DICPCG:  Solving for p_rgh, Initial residual = 1.17727e-07, Final residual = 7.60121e-08, No Iterations 1
time step continuity errors : sum local = 2.00037e-18, global = -4.8171e-20, cumulative = -1.6029e-17
DICPCG:  Solving for p_rgh, Initial residual = 8.16892e-08, Final residual = 8.16892e-08, No Iterations 0
time step continuity errors : sum local = 2.14977e-18, global = -4.81711e-20, cumulative = -1.60771e-17
ExecutionTime = 9.21 s  ClockTime = 10 s

Courant Number mean: 2.29927e-08 max: 2.90015e-05
Interface Courant Number mean: 0 max: 0
deltaT = 1.68253e-09
Time = 1.00951e-08

smoothSolver:  Solving for alpha.water, Initial residual = 1.82524e-09, Final residual = 1.82524e-09, No Iterations 0
Phase-1 volume fraction = 0.0631537  Min(alpha.water) = -4.34811e-38  Max(alpha.water) = 1
MULES: Correcting alpha.water
MULES: Correcting alpha.water
Phase-1 volume fraction = 0.0631537  Min(alpha.water) = -4.34811e-38  Max(alpha.water) = 1
DICPCG:  Solving for p_rgh, Initial residual = 2.75134e-07, Final residual = 7.89976e-08, No Iterations 5
time step continuity errors : sum local = 2.99366e-18, global = 6.22258e-20, cumulative = -1.60149e-17
DICPCG:  Solving for p_rgh, Initial residual = 1.13045e-07, Final residual = 6.13459e-08, No Iterations 1
time step continuity errors : sum local = 2.32474e-18, global = 6.42004e-20, cumulative = -1.59507e-17
DICPCG:  Solving for p_rgh, Initial residual = 6.79112e-08, Final residual = 6.79112e-08, No Iterations 0
time step continuity errors : sum local = 2.57353e-18, global = 6.42004e-20, cumulative = -1.58865e-17
ExecutionTime = 9.32 s  ClockTime = 10 s

Courant Number mean: 2.75913e-08 max: 3.48018e-05
Interface Courant Number mean: 0 max: 0
deltaT = 2.01903e-09
Time = 1.21141e-08

smoothSolver:  Solving for alpha.water, Initial residual = 2.19029e-09, Final residual = 2.19029e-09, No Iterations 0
Phase-1 volume fraction = 0.0631537  Min(alpha.water) = -4.34811e-38  Max(alpha.water) = 1
MULES: Correcting alpha.water
MULES: Correcting alpha.water
Phase-1 volume fraction = 0.0631537  Min(alpha.water) = -4.34811e-38  Max(alpha.water) = 1
DICPCG:  Solving for p_rgh, Initial residual = 2.72052e-07, Final residual = 8.62255e-08, No Iterations 2
time step continuity errors : sum local = 4.70528e-18, global = 2.55758e-19, cumulative = -1.56308e-17
DICPCG:  Solving for p_rgh, Initial residual = 1.22876e-07, Final residual = 5.62766e-08, No Iterations 1
time step continuity errors : sum local = 3.07098e-18, global = 2.54653e-19, cumulative = -1.53761e-17
DICPCG:  Solving for p_rgh, Initial residual = 6.42238e-08, Final residual = 6.42238e-08, No Iterations 0
time step continuity errors : sum local = 3.50465e-18, global = 2.54653e-19, cumulative = -1.51214e-17
ExecutionTime = 9.42 s  ClockTime = 11 s

Courant Number mean: 3.31095e-08 max: 4.17621e-05
Interface Courant Number mean: 0 max: 0
deltaT = 2.42284e-09
Time = 1.4537e-08

smoothSolver:  Solving for alpha.water, Initial residual = 2.62835e-09, Final residual = 2.62835e-09, No Iterations 0
Phase-1 volume fraction = 0.0631537  Min(alpha.water) = -4.34811e-38  Max(alpha.water) = 1
MULES: Correcting alpha.water
MULES: Correcting alpha.water
[...]
DICPCG:  Solving for p_rgh, Initial residual = 4.54898e-05, Final residual = 1.7771e-06, No Iterations 10
time step continuity errors : sum local = 2.98978e-09, global = -1.34625e-10, cumulative = -2.88877e-07
DICPCG:  Solving for p_rgh, Initial residual = 5.56739e-06, Final residual = 9.5646e-08, No Iterations 39
time step continuity errors : sum local = 1.60788e-10, global = -3.76945e-11, cumulative = -2.88915e-07
ExecutionTime = 46.65 s  ClockTime = 51 s

Courant Number mean: 0.000901392 max: 0.99012
Interface Courant Number mean: 0.000179168 max: 0.106494
deltaT = 4.67825e-05
Time = 0.008924

smoothSolver:  Solving for alpha.water, Initial residual = 0.000120159, Final residual = 2.69088e-11, No Iterations 2
Phase-1 volume fraction = 0.0608105  Min(alpha.water) = -7.47404e-35  Max(alpha.water) = 1
MULES: Correcting alpha.water
MULES: Correcting alpha.water
Phase-1 volume fraction = 0.0608104  Min(alpha.water) = -8.7277e-09  Max(alpha.water) = 1
DICPCG:  Solving for p_rgh, Initial residual = 0.000117827, Final residual = 5.66042e-06, No Iterations 9
time step continuity errors : sum local = 9.51065e-09, global = -2.96384e-11, cumulative = -2.88945e-07
DICPCG:  Solving for p_rgh, Initial residual = 4.54459e-05, Final residual = 1.74844e-06, No Iterations 10
time step continuity errors : sum local = 2.92974e-09, global = -1.33925e-10, cumulative = -2.89078e-07
DICPCG:  Solving for p_rgh, Initial residual = 5.55013e-06, Final residual = 9.58102e-08, No Iterations 39
time step continuity errors : sum local = 1.60418e-10, global = -3.79796e-11, cumulative = -2.89116e-07
ExecutionTime = 46.86 s  ClockTime = 51 s

Courant Number mean: 0.000900072 max: 0.98998
Interface Courant Number mean: 0.000181629 max: 0.106962
deltaT = 4.67825e-05
Time = 0.00897078

smoothSolver:  Solving for alpha.water, Initial residual = 0.000119536, Final residual = 2.66766e-11, No Iterations 2
Phase-1 volume fraction = 0.0607982  Min(alpha.water) = -7.44477e-35  Max(alpha.water) = 1
MULES: Correcting alpha.water
MULES: Correcting alpha.water
Phase-1 volume fraction = 0.0607982  Min(alpha.water) = -8.80256e-09  Max(alpha.water) = 1
DICPCG:  Solving for p_rgh, Initial residual = 0.000117977, Final residual = 5.55614e-06, No Iterations 9
time step continuity errors : sum local = 9.29783e-09, global = -2.93984e-11, cumulative = -2.89146e-07
DICPCG:  Solving for p_rgh, Initial residual = 4.53821e-05, Final residual = 1.72315e-06, No Iterations 10
time step continuity errors : sum local = 2.87589e-09, global = -1.33255e-10, cumulative = -2.89279e-07
DICPCG:  Solving for p_rgh, Initial residual = 5.53449e-06, Final residual = 9.59929e-08, No Iterations 39
time step continuity errors : sum local = 1.60087e-10, global = -3.82509e-11, cumulative = -2.89317e-07
ExecutionTime = 47.03 s  ClockTime = 51 s

Courant Number mean: 0.000898763 max: 0.98984
Interface Courant Number mean: 0.000181991 max: 0.107425
deltaT = 4.67825e-05
Time = 0.00901757

smoothSolver:  Solving for alpha.water, Initial residual = 0.000118911, Final residual = 2.64561e-11, No Iterations 2
Phase-1 volume fraction = 0.0607859  Min(alpha.water) = -7.41569e-35  Max(alpha.water) = 1
MULES: Correcting alpha.water
MULES: Correcting alpha.water
Phase-1 volume fraction = 0.0607859  Min(alpha.water) = -8.87059e-09  Max(alpha.water) = 1
DICPCG:  Solving for p_rgh, Initial residual = 0.000118098, Final residual = 5.4633e-06, No Iterations 9
time step continuity errors : sum local = 9.10606e-09, global = -2.93206e-11, cumulative = -2.89347e-07
DICPCG:  Solving for p_rgh, Initial residual = 4.52548e-05, Final residual = 1.70119e-06, No Iterations 10
time step continuity errors : sum local = 2.82806e-09, global = -1.32673e-10, cumulative = -2.89479e-07
DICPCG:  Solving for p_rgh, Initial residual = 5.51716e-06, Final residual = 9.60941e-08, No Iterations 39
time step continuity errors : sum local = 1.59625e-10, global = -3.84696e-11, cumulative = -2.89518e-07
ExecutionTime = 47.23 s  ClockTime = 51 s

Courant Number mean: 0.000897464 max: 0.989698
Interface Courant Number mean: 0.000181669 max: 0.107884
deltaT = 4.67825e-05
Time = 0.00906435

smoothSolver:  Solving for alpha.water, Initial residual = 0.000118284, Final residual = 2.6246e-11, No Iterations 2
Phase-1 volume fraction = 0.0607737  Min(alpha.water) = -7.38679e-35  Max(alpha.water) = 1
MULES: Correcting alpha.water
MULES: Correcting alpha.water
Phase-1 volume fraction = 0.0607736  Min(alpha.water) = -8.93056e-09  Max(alpha.water) = 1
DICPCG:  Solving for p_rgh, Initial residual = 0.000118253, Final residual = 5.36574e-06, No Iterations 9
time step continuity errors : sum local = 8.90812e-09, global = -2.9241e-11, cumulative = -2.89547e-07
DICPCG:  Solving for p_rgh, Initial residual = 4.52182e-05, Final residual = 1.67813e-06, No Iterations 10
time step continuity errors : sum local = 2.77886e-09, global = -1.3209e-10, cumulative = -2.89679e-07
DICPCG:  Solving for p_rgh, Initial residual = 5.50497e-06, Final residual = 9.60861e-08, No Iterations 39
time step continuity errors : sum local = 1.58991e-10, global = -3.85446e-11, cumulative = -2.89718e-07
ExecutionTime = 47.46 s  ClockTime = 52 s

Courant Number mean: 0.000896177 max: 0.989557
Interface Courant Number mean: 0.000181792 max: 0.108338
deltaT = 4.67825e-05
Time = 0.00911113

smoothSolver:  Solving for alpha.water, Initial residual = 0.000117685, Final residual = 2.60452e-11, No Iterations 2
Phase-1 volume fraction = 0.0607614  Min(alpha.water) = -1.22192e-18  Max(alpha.water) = 1
MULES: Correcting alpha.water
MULES: Correcting alpha.water
Phase-1 volume fraction = 0.0607614  Min(alpha.water) = -8.98382e-09  Max(alpha.water) = 1
DICPCG:  Solving for p_rgh, Initial residual = 0.00011837, Final residual = 5.26356e-06, No Iterations 9
time step continuity errors : sum local = 8.70436e-09, global = -2.91589e-11, cumulative = -2.89747e-07
DICPCG:  Solving for p_rgh, Initial residual = 4.51718e-05, Final residual = 1.65465e-06, No Iterations 10
time step continuity errors : sum local = 2.72943e-09, global = -1.31483e-10, cumulative = -2.89878e-07
DICPCG:  Solving for p_rgh, Initial residual = 5.49178e-06, Final residual = 9.59629e-08, No Iterations 39
time step continuity errors : sum local = 1.58177e-10, global = -3.85058e-11, cumulative = -2.89917e-07
ExecutionTime = 47.66 s  ClockTime = 52 s

Courant Number mean: 0.000894904 max: 0.989415
Interface Courant Number mean: 0.00018148 max: 0.108795
deltaT = 4.67825e-05
Time = 0.00915791

smoothSolver:  Solving for alpha.water, Initial residual = 0.00011709, Final residual = 2.58547e-11, No Iterations 2
Phase-1 volume fraction = 0.0607491  Min(alpha.water) = -1.22163e-18  Max(alpha.water) = 1
MULES: Correcting alpha.water
MULES: Correcting alpha.water
Phase-1 volume fraction = 0.0607491  Min(alpha.water) = -9.02931e-09  Max(alpha.water) = 1
DICPCG:  Solving for p_rgh, Initial residual = 0.000118495, Final residual = 5.17388e-06, No Iterations 9
time step continuity errors : sum local = 8.52307e-09, global = -2.90973e-11, cumulative = -2.89946e-07
DICPCG:  Solving for p_rgh, Initial residual = 4.51296e-05, Final residual = 1.63249e-06, No Iterations 10
time step continuity errors : sum local = 2.68265e-09, global = -1.30868e-10, cumulative = -2.90077e-07
DICPCG:  Solving for p_rgh, Initial residual = 5.48057e-06, Final residual = 9.57911e-08, No Iterations 39
time step continuity errors : sum local = 1.57294e-10, global = -3.83627e-11, cumulative = -2.90115e-07
ExecutionTime = 47.92 s  ClockTime = 52 s

Courant Number mean: 0.000893691 max: 0.989272
Interface Courant Number mean: 0.000182272 max: 0.10925
deltaT = 4.67825e-05
Time = 0.0092047

smoothSolver:  Solving for alpha.water, Initial residual = 0.000116491, Final residual = 2.56719e-11, No Iterations 2
Phase-1 volume fraction = 0.0607369  Min(alpha.water) = -1.22134e-18  Max(alpha.water) = 1
MULES: Correcting alpha.water
MULES: Correcting alpha.water
Phase-1 volume fraction = 0.0607369  Min(alpha.water) = -9.06828e-09  Max(alpha.water) = 1
DICPCG:  Solving for p_rgh, Initial residual = 0.000118601, Final residual = 5.07486e-06, No Iterations 9
time step continuity errors : sum local = 8.3281e-09, global = -2.90268e-11, cumulative = -2.90144e-07
DICPCG:  Solving for p_rgh, Initial residual = 4.50738e-05, Final residual = 1.60958e-06, No Iterations 10
time step continuity errors : sum local = 2.63507e-09, global = -1.30277e-10, cumulative = -2.90274e-07
DICPCG:  Solving for p_rgh, Initial residual = 5.47024e-06, Final residual = 9.55336e-08, No Iterations 39
time step continuity errors : sum local = 1.56284e-10, global = -3.81016e-11, cumulative = -2.90313e-07
ExecutionTime = 48.13 s  ClockTime = 52 s

Courant Number mean: 0.000892564 max: 0.98913
Interface Courant Number mean: 0.000183914 max: 0.1097
deltaT = 4.67825e-05
Time = 0.00925148

smoothSolver:  Solving for alpha.water, Initial residual = 0.000115893, Final residual = 2.5496e-11, No Iterations 2
Phase-1 volume fraction = 0.0607246  Min(alpha.water) = -1.22104e-18  Max(alpha.water) = 1
MULES: Correcting alpha.water
MULES: Correcting alpha.water
Phase-1 volume fraction = 0.0607246  Min(alpha.water) = -9.09985e-09  Max(alpha.water) = 1
DICPCG:  Solving for p_rgh, Initial residual = 0.000118692, Final residual = 4.99467e-06, No Iterations 9
time step continuity errors : sum local = 8.16571e-09, global = -2.89483e-11, cumulative = -2.90342e-07
DICPCG:  Solving for p_rgh, Initial residual = 4.50321e-05, Final residual = 1.58957e-06, No Iterations 10
time step continuity errors : sum local = 2.59266e-09, global = -1.29682e-10, cumulative = -2.90471e-07
DICPCG:  Solving for p_rgh, Initial residual = 5.46759e-06, Final residual = 9.54049e-08, No Iterations 39
time step continuity errors : sum local = 1.55496e-10, global = -3.78741e-11, cumulative = -2.90509e-07
ExecutionTime = 48.3 s  ClockTime = 52 s

Courant Number mean: 0.000891462 max: 0.988987
Interface Courant Number mean: 0.00018361 max: 0.110146
deltaT = 4.67825e-05
Time = 0.00929826

smoothSolver:  Solving for alpha.water, Initial residual = 0.00011529, Final residual = 2.5627e-11, No Iterations 2
Phase-1 volume fraction = 0.0607124  Min(alpha.water) = -1.22073e-18  Max(alpha.water) = 1
MULES: Correcting alpha.water
MULES: Correcting alpha.water
Phase-1 volume fraction = 0.0607124  Min(alpha.water) = -9.12539e-09  Max(alpha.water) = 1
DICPCG:  Solving for p_rgh, Initial residual = 0.000118748, Final residual = 4.90573e-06, No Iterations 9
time step continuity errors : sum local = 7.99051e-09, global = -2.8974e-11, cumulative = -2.90538e-07
DICPCG:  Solving for p_rgh, Initial residual = 4.49721e-05, Final residual = 2.23382e-06, No Iterations 9
time step continuity errors : sum local = 3.63013e-09, global = -1.3219e-10, cumulative = -2.9067e-07
DICPCG:  Solving for p_rgh, Initial residual = 6.00665e-06, Final residual = 9.82662e-08, No Iterations 39
time step continuity errors : sum local = 1.59575e-10, global = -3.90887e-11, cumulative = -2.90709e-07
ExecutionTime = 48.45 s  ClockTime = 53 s

Courant Number mean: 0.000890375 max: 0.988845
Interface Courant Number mean: 0.0001852 max: 0.110587
deltaT = 4.67825e-05
Time = 0.00934504

smoothSolver:  Solving for alpha.water, Initial residual = 0.000114684, Final residual = 2.59652e-11, No Iterations 2
Phase-1 volume fraction = 0.0607001  Min(alpha.water) = -1.22042e-18  Max(alpha.water) = 1
MULES: Correcting alpha.water
MULES: Correcting alpha.water
Phase-1 volume fraction = 0.0607001  Min(alpha.water) = -9.14405e-09  Max(alpha.water) = 1
DICPCG:  Solving for p_rgh, Initial residual = 0.000118813, Final residual = 4.81658e-06, No Iterations 9
time step continuity errors : sum local = 7.81657e-09, global = -2.9436e-11, cumulative = -2.90739e-07
DICPCG:  Solving for p_rgh, Initial residual = 4.49173e-05, Final residual = 2.20912e-06, No Iterations 9
time step continuity errors : sum local = 3.57705e-09, global = -1.32176e-10, cumulative = -2.90871e-07
DICPCG:  Solving for p_rgh, Initial residual = 5.99909e-06, Final residual = 9.80594e-08, No Iterations 39
time step continuity errors : sum local = 1.58666e-10, global = -3.87827e-11, cumulative = -2.9091e-07
ExecutionTime = 48.59 s  ClockTime = 53 s

Courant Number mean: 0.000889303 max: 0.988704
Interface Courant Number mean: 0.000186702 max: 0.111023
deltaT = 4.67825e-05
Time = 0.00939183

smoothSolver:  Solving for alpha.water, Initial residual = 0.00011408, Final residual = 2.63025e-11, No Iterations 2
Phase-1 volume fraction = 0.0606879  Min(alpha.water) = -1.2201e-18  Max(alpha.water) = 1
MULES: Correcting alpha.water
MULES: Correcting alpha.water
Phase-1 volume fraction = 0.0606879  Min(alpha.water) = -9.15708e-09  Max(alpha.water) = 1
DICPCG:  Solving for p_rgh, Initial residual = 0.000118866, Final residual = 4.72632e-06, No Iterations 9
time step continuity errors : sum local = 7.64241e-09, global = -2.91157e-11, cumulative = -2.90939e-07
DICPCG:  Solving for p_rgh, Initial residual = 4.48608e-05, Final residual = 2.18574e-06, No Iterations 9
time step continuity errors : sum local = 3.52659e-09, global = -1.31096e-10, cumulative = -2.9107e-07
DICPCG:  Solving for p_rgh, Initial residual = 5.99342e-06, Final residual = 9.80183e-08, No Iterations 39
time step continuity errors : sum local = 1.58036e-10, global = -3.84891e-11, cumulative = -2.91108e-07
ExecutionTime = 48.75 s  ClockTime = 53 s

Courant Number mean: 0.000888252 max: 0.988563
Interface Courant Number mean: 0.00018445 max: 0.111454
deltaT = 4.67825e-05
Time = 0.00943861

smoothSolver:  Solving for alpha.water, Initial residual = 0.000113504, Final residual = 2.66397e-11, No Iterations 2
Phase-1 volume fraction = 0.0606757  Min(alpha.water) = -1.21977e-18  Max(alpha.water) = 1
MULES: Correcting alpha.water
MULES: Correcting alpha.water
Phase-1 volume fraction = 0.0606757  Min(alpha.water) = -9.16382e-09  Max(alpha.water) = 1
DICPCG:  Solving for p_rgh, Initial residual = 0.000119042, Final residual = 4.67003e-06, No Iterations 9
time step continuity errors : sum local = 7.52449e-09, global = -2.90792e-11, cumulative = -2.91138e-07
DICPCG:  Solving for p_rgh, Initial residual = 4.48349e-05, Final residual = 2.16693e-06, No Iterations 9
time step continuity errors : sum local = 3.4839e-09, global = -1.30331e-10, cumulative = -2.91268e-07
DICPCG:  Solving for p_rgh, Initial residual = 5.99322e-06, Final residual = 9.85133e-08, No Iterations 39
time step continuity errors : sum local = 1.58275e-10, global = -3.83069e-11, cumulative = -2.91306e-07
ExecutionTime = 48.9 s  ClockTime = 53 s

Courant Number mean: 0.00088725 max: 0.988424
Interface Courant Number mean: 0.000184205 max: 0.111879
deltaT = 4.67825e-05
Time = 0.00948539

smoothSolver:  Solving for alpha.water, Initial residual = 0.000113052, Final residual = 2.69781e-11, No Iterations 2
Phase-1 volume fraction = 0.0606635  Min(alpha.water) = -1.21944e-18  Max(alpha.water) = 1
MULES: Correcting alpha.water
MULES: Correcting alpha.water
Phase-1 volume fraction = 0.0606634  Min(alpha.water) = -9.16535e-09  Max(alpha.water) = 1
DICPCG:  Solving for p_rgh, Initial residual = 0.00011919, Final residual = 4.58449e-06, No Iterations 9
time step continuity errors : sum local = 7.36059e-09, global = -2.91589e-11, cumulative = -2.91335e-07
DICPCG:  Solving for p_rgh, Initial residual = 4.47986e-05, Final residual = 2.13368e-06, No Iterations 9
time step continuity errors : sum local = 3.41858e-09, global = -1.28752e-10, cumulative = -2.91464e-07
DICPCG:  Solving for p_rgh, Initial residual = 5.97706e-06, Final residual = 9.81916e-08, No Iterations 39
time step continuity errors : sum local = 1.57214e-10, global = -3.76217e-11, cumulative = -2.91502e-07
ExecutionTime = 49.17 s  ClockTime = 53 s

Courant Number mean: 0.000886271 max: 0.988287
Interface Courant Number mean: 0.000183965 max: 0.112298
deltaT = 4.67825e-05
Time = 0.00953217

smoothSolver:  Solving for alpha.water, Initial residual = 0.00011259, Final residual = 2.73182e-11, No Iterations 2
Phase-1 volume fraction = 0.0606513  Min(alpha.water) = -1.21909e-18  Max(alpha.water) = 1
MULES: Correcting alpha.water
MULES: Correcting alpha.water
Phase-1 volume fraction = 0.0606512  Min(alpha.water) = -9.16162e-09  Max(alpha.water) = 1
DICPCG:  Solving for p_rgh, Initial residual = 0.000122238, Final residual = 4.5974e-06, No Iterations 9
time step continuity errors : sum local = 7.35577e-09, global = -2.85618e-11, cumulative = -2.9153e-07
DICPCG:  Solving for p_rgh, Initial residual = 4.48285e-05, Final residual = 2.08527e-06, No Iterations 9
time step continuity errors : sum local = 3.32968e-09, global = -1.23601e-10, cumulative = -2.91654e-07
DICPCG:  Solving for p_rgh, Initial residual = 5.94741e-06, Final residual = 9.5813e-08, No Iterations 39
time step continuity errors : sum local = 1.52886e-10, global = -3.5982e-11, cumulative = -2.9169e-07
ExecutionTime = 49.39 s  ClockTime = 54 s

Courant Number mean: 0.000885311 max: 0.988152
Interface Courant Number mean: 0.000180807 max: 0.112711
deltaT = 4.67825e-05
Time = 0.00957896

smoothSolver:  Solving for alpha.water, Initial residual = 0.000112119, Final residual = 2.76598e-11, No Iterations 2
Phase-1 volume fraction = 0.0606391  Min(alpha.water) = -1.21875e-18  Max(alpha.water) = 1
MULES: Correcting alpha.water
MULES: Correcting alpha.water
Phase-1 volume fraction = 0.060639  Min(alpha.water) = -9.15358e-09  Max(alpha.water) = 1
DICPCG:  Solving for p_rgh, Initial residual = 0.000126614, Final residual = 4.63899e-06, No Iterations 9
time step continuity errors : sum local = 7.39709e-09, global = -2.70507e-11, cumulative = -2.91717e-07
DICPCG:  Solving for p_rgh, Initial residual = 4.50492e-05, Final residual = 2.03874e-06, No Iterations 9
time step continuity errors : sum local = 3.24451e-09, global = -1.17511e-10, cumulative = -2.91834e-07
DICPCG:  Solving for p_rgh, Initial residual = 5.92532e-06, Final residual = 9.31127e-08, No Iterations 39
time step continuity errors : sum local = 1.48082e-10, global = -3.41144e-11, cumulative = -2.91869e-07
ExecutionTime = 49.52 s  ClockTime = 54 s

Courant Number mean: 0.000884425 max: 0.988023
Interface Courant Number mean: 0.000180604 max: 0.113119
deltaT = 4.67825e-05
Time = 0.00962574

smoothSolver:  Solving for alpha.water, Initial residual = 0.000111634, Final residual = 2.80039e-11, No Iterations 2
Phase-1 volume fraction = 0.0606269  Min(alpha.water) = -1.21839e-18  Max(alpha.water) = 1
MULES: Correcting alpha.water
MULES: Correcting alpha.water
Phase-1 volume fraction = 0.0606269  Min(alpha.water) = -9.14065e-09  Max(alpha.water) = 1
DICPCG:  Solving for p_rgh, Initial residual = 0.000148827, Final residual = 7.10496e-06, No Iterations 8
time step continuity errors : sum local = 1.12913e-08, global = -2.61839e-11, cumulative = -2.91895e-07
DICPCG:  Solving for p_rgh, Initial residual = 4.69489e-05, Final residual = 2.14837e-06, No Iterations 9
time step continuity errors : sum local = 3.40776e-09, global = -1.28082e-10, cumulative = -2.92023e-07
DICPCG:  Solving for p_rgh, Initial residual = 6.10268e-06, Final residual = 9.97069e-08, No Iterations 39
time step continuity errors : sum local = 1.58047e-10, global = -3.60681e-11, cumulative = -2.92059e-07
ExecutionTime = 49.68 s  ClockTime = 54 s

Courant Number mean: 0.000883647 max: 0.987899
Interface Courant Number mean: 0.000184603 max: 0.927457
deltaT = 4.67825e-05
Time = 0.00967252

smoothSolver:  Solving for alpha.water, Initial residual = 0.000111133, Final residual = 2.83519e-11, No Iterations 2
Phase-1 volume fraction = 0.0606148  Min(alpha.water) = -1.21802e-18  Max(alpha.water) = 1
MULES: Correcting alpha.water
MULES: Correcting alpha.water
Phase-1 volume fraction = 0.0606147  Min(alpha.water) = -9.11835e-09  Max(alpha.water) = 1
DICPCG:  Solving for p_rgh, Initial residual = 0.000142024, Final residual = 6.88357e-06, No Iterations 8
time step continuity errors : sum local = 1.09033e-08, global = -2.98731e-11, cumulative = -2.92089e-07
